MODEL 1
REMARK VINA RESULT:      -8.1      0.000      0.000
REMARK  Name = 
REMARK  0 active torsions:
REMARK  status: ('A' for Active; 'I' for Inactive)
REMARK                            x       y       z     vdW  Elec       q    Type
REMARK                         _______ _______ _______ _____ _____    ______ ____
ROOT
ATOM      1  C   UNL     1     105.971  10.013 -29.158  0.00  0.00    +0.000 C 
ATOM      2  C   UNL     1     104.823  11.015 -28.881  0.00  0.00    +0.000 C 
ATOM      3  C   UNL     1     104.562  11.852 -30.137  0.00  0.00    +0.000 C 
ATOM      4  C   UNL     1     105.736  12.799 -30.437  0.00  0.00    +0.000 C 
ATOM      5  C   UNL     1     106.163  13.673 -29.230  0.00  0.00    +0.000 C 
ATOM      6  C   UNL     1     107.396  14.539 -29.477  0.00  0.00    +0.000 A 
ATOM      7  C   UNL     1     107.737  14.978 -30.771  0.00  0.00    +0.000 A 
ATOM      8  C   UNL     1     108.859  15.777 -30.997  0.00  0.00    +0.000 A 
ATOM      9  C   UNL     1     109.645  16.165 -29.922  0.00  0.00    +0.000 A 
ATOM     10  O   UNL     1     110.756  16.933 -30.097  0.00  0.00    +0.000 OA
ATOM     11  C   UNL     1     109.317  15.774 -28.630  0.00  0.00    +0.000 A 
ATOM     12  C   UNL     1     108.189  14.968 -28.393  0.00  0.00    +0.000 A 
ATOM     13  C   UNL     1     107.915  14.546 -26.968  0.00  0.00    +0.000 C 
ATOM     14  C   UNL     1     106.601  13.795 -26.764  0.00  0.00    +0.000 C 
ATOM     15  C   UNL     1     106.339  12.834 -27.928  0.00  0.00    +0.000 C 
ATOM     16  C   UNL     1     105.086  11.982 -27.709  0.00  0.00    +0.000 C 
ATOM     17  C   UNL     1     105.003  11.076 -26.481  0.00  0.00    +0.000 C 
ATOM     18  C   UNL     1     103.905  10.057 -26.843  0.00  0.00    +0.000 C 
ATOM     19  C   UNL     1     103.579  10.289 -28.331  0.00  0.00    +0.000 C 
ATOM     20  O   UNL     1     103.262   9.089 -29.009  0.00  0.00    +0.000 OA
ENDROOT
TORSDOF 0
ENDMDL
MODEL 2
REMARK VINA RESULT:      -7.8     33.140     34.891
REMARK  Name = 
REMARK  0 active torsions:
REMARK  status: ('A' for Active; 'I' for Inactive)
REMARK                            x       y       z     vdW  Elec       q    Type
REMARK                         _______ _______ _______ _____ _____    ______ ____
ROOT
ATOM      1  C   UNL     1      93.798  38.221 -12.596  0.00  0.00    +0.000 C 
ATOM      2  C   UNL     1      93.513  39.012 -11.295  0.00  0.00    +0.000 C 
ATOM      3  C   UNL     1      93.479  38.044 -10.107  0.00  0.00    +0.000 C 
ATOM      4  C   UNL     1      92.260  37.109 -10.176  0.00  0.00    +0.000 C 
ATOM      5  C   UNL     1      90.911  37.849 -10.367  0.00  0.00    +0.000 C 
ATOM      6  C   UNL     1      89.703  36.931 -10.548  0.00  0.00    +0.000 A 
ATOM      7  C   UNL     1      89.680  35.634 -10.003  0.00  0.00    +0.000 A 
ATOM      8  C   UNL     1      88.573  34.798 -10.160  0.00  0.00    +0.000 A 
ATOM      9  C   UNL     1      87.463  35.261 -10.850  0.00  0.00    +0.000 A 
ATOM     10  O   UNL     1      86.367  34.476 -11.039  0.00  0.00    +0.000 OA
ATOM     11  C   UNL     1      87.444  36.548 -11.373  0.00  0.00    +0.000 A 
ATOM     12  C   UNL     1      88.555  37.397 -11.221  0.00  0.00    +0.000 A 
ATOM     13  C   UNL     1      88.481  38.770 -11.849  0.00  0.00    +0.000 C 
ATOM     14  C   UNL     1      89.658  39.687 -11.525  0.00  0.00    +0.000 C 
ATOM     15  C   UNL     1      90.973  38.901 -11.517  0.00  0.00    +0.000 C 
ATOM     16  C   UNL     1      92.190  39.804 -11.303  0.00  0.00    +0.000 C 
ATOM     17  C   UNL     1      92.465  40.935 -12.293  0.00  0.00    +0.000 C 
ATOM     18  C   UNL     1      93.951  41.275 -12.068  0.00  0.00    +0.000 C 
ATOM     19  C   UNL     1      94.503  40.182 -11.134  0.00  0.00    +0.000 C 
ATOM     20  O   UNL     1      95.847  39.848 -11.426  0.00  0.00    +0.000 OA
ENDROOT
TORSDOF 0
ENDMDL
MODEL 3
REMARK VINA RESULT:      -7.8     36.567     37.977
REMARK  Name = 
REMARK  0 active torsions:
REMARK  status: ('A' for Active; 'I' for Inactive)
REMARK                            x       y       z     vdW  Elec       q    Type
REMARK                         _______ _______ _______ _____ _____    ______ ____
ROOT
ATOM      1  C   UNL     1      87.783  35.951  -9.972  0.00  0.00    +0.000 C 
ATOM      2  C   UNL     1      88.811  37.075  -9.693  0.00  0.00    +0.000 C 
ATOM      3  C   UNL     1      88.604  37.616  -8.274  0.00  0.00    +0.000 C 
ATOM      4  C   UNL     1      87.272  38.374  -8.149  0.00  0.00    +0.000 C 
ATOM      5  C   UNL     1      87.067  39.469  -9.228  0.00  0.00    +0.000 C 
ATOM      6  C   UNL     1      85.704  40.156  -9.186  0.00  0.00    +0.000 A 
ATOM      7  C   UNL     1      84.970  40.255  -7.989  0.00  0.00    +0.000 A 
ATOM      8  C   UNL     1      83.728  40.892  -7.947  0.00  0.00    +0.000 A 
ATOM      9  C   UNL     1      83.213  41.456  -9.105  0.00  0.00    +0.000 A 
ATOM     10  O   UNL     1      82.001  42.075  -9.114  0.00  0.00    +0.000 OA
ATOM     11  C   UNL     1      83.929  41.401 -10.295  0.00  0.00    +0.000 A 
ATOM     12  C   UNL     1      85.180  40.762 -10.347  0.00  0.00    +0.000 A 
ATOM     13  C   UNL     1      85.885  40.705 -11.683  0.00  0.00    +0.000 C 
ATOM     14  C   UNL     1      87.297  40.125 -11.638  0.00  0.00    +0.000 C 
ATOM     15  C   UNL     1      87.368  38.943 -10.665  0.00  0.00    +0.000 C 
ATOM     16  C   UNL     1      88.740  38.265 -10.672  0.00  0.00    +0.000 C 
ATOM     17  C   UNL     1      89.277  37.677 -11.977  0.00  0.00    +0.000 C 
ATOM     18  C   UNL     1      90.368  36.689 -11.520  0.00  0.00    +0.000 C 
ATOM     19  C   UNL     1      90.246  36.595  -9.987  0.00  0.00    +0.000 C 
ATOM     20  O   UNL     1      90.533  35.298  -9.500  0.00  0.00    +0.000 OA
ENDROOT
TORSDOF 0
ENDMDL
MODEL 4
REMARK VINA RESULT:      -7.4     37.643     38.817
REMARK  Name = 
REMARK  0 active torsions:
REMARK  status: ('A' for Active; 'I' for Inactive)
REMARK                            x       y       z     vdW  Elec       q    Type
REMARK                         _______ _______ _______ _____ _____    ______ ____
ROOT
ATOM      1  C   UNL     1      82.867  38.909 -10.442  0.00  0.00    +0.000 C 
ATOM      2  C   UNL     1      83.203  40.383 -10.104  0.00  0.00    +0.000 C 
ATOM      3  C   UNL     1      83.844  41.053 -11.324  0.00  0.00    +0.000 C 
ATOM      4  C   UNL     1      85.238  40.475 -11.618  0.00  0.00    +0.000 C 
ATOM      5  C   UNL     1      86.186  40.466 -10.392  0.00  0.00    +0.000 C 
ATOM      6  C   UNL     1      87.536  39.795 -10.637  0.00  0.00    +0.000 A 
ATOM      7  C   UNL     1      88.109  39.749 -11.922  0.00  0.00    +0.000 A 
ATOM      8  C   UNL     1      89.347  39.144 -12.146  0.00  0.00    +0.000 A 
ATOM      9  C   UNL     1      90.039  38.594 -11.077  0.00  0.00    +0.000 A 
ATOM     10  O   UNL     1      91.243  37.983 -11.250  0.00  0.00    +0.000 OA
ATOM     11  C   UNL     1      89.514  38.652  -9.792  0.00  0.00    +0.000 A 
ATOM     12  C   UNL     1      88.266  39.258  -9.556  0.00  0.00    +0.000 A 
ATOM     13  C   UNL     1      87.737  39.249  -8.141  0.00  0.00    +0.000 C 
ATOM     14  C   UNL     1      86.451  40.047  -7.933  0.00  0.00    +0.000 C 
ATOM     15  C   UNL     1      85.503  39.868  -9.124  0.00  0.00    +0.000 C 
ATOM     16  C   UNL     1      84.157  40.563  -8.906  0.00  0.00    +0.000 C 
ATOM     17  C   UNL     1      83.295  40.165  -7.709  0.00  0.00    +0.000 C 
ATOM     18  C   UNL     1      81.886  40.666  -8.081  0.00  0.00    +0.000 C 
ATOM     19  C   UNL     1      81.966  41.117  -9.551  0.00  0.00    +0.000 C 
ATOM     20  O   UNL     1      80.772  40.856 -10.263  0.00  0.00    +0.000 OA
ENDROOT
TORSDOF 0
ENDMDL
MODEL 5
REMARK VINA RESULT:      -7.3      1.759      3.630
REMARK  Name = 
REMARK  0 active torsions:
REMARK  status: ('A' for Active; 'I' for Inactive)
REMARK                            x       y       z     vdW  Elec       q    Type
REMARK                         _______ _______ _______ _____ _____    ______ ____
ROOT
ATOM      1  C   UNL     1     102.293  11.909 -26.069  0.00  0.00    +0.000 C 
ATOM      2  C   UNL     1     103.163  10.632 -26.179  0.00  0.00    +0.000 C 
ATOM      3  C   UNL     1     104.491  10.854 -25.448  0.00  0.00    +0.000 C 
ATOM      4  C   UNL     1     105.367  11.890 -26.172  0.00  0.00    +0.000 C 
ATOM      5  C   UNL     1     105.572  11.596 -27.680  0.00  0.00    +0.000 C 
ATOM      6  C   UNL     1     106.346  12.672 -28.439  0.00  0.00    +0.000 A 
ATOM      7  C   UNL     1     107.283  13.496 -27.787  0.00  0.00    +0.000 A 
ATOM      8  C   UNL     1     107.999  14.474 -28.481  0.00  0.00    +0.000 A 
ATOM      9  C   UNL     1     107.798  14.624 -29.845  0.00  0.00    +0.000 A 
ATOM     10  O   UNL     1     108.464  15.573 -30.559  0.00  0.00    +0.000 OA
ATOM     11  C   UNL     1     106.903  13.805 -30.521  0.00  0.00    +0.000 A 
ATOM     12  C   UNL     1     106.177  12.818 -29.831  0.00  0.00    +0.000 A 
ATOM     13  C   UNL     1     105.191  11.989 -30.622  0.00  0.00    +0.000 C 
ATOM     14  C   UNL     1     104.545  10.846 -29.842  0.00  0.00    +0.000 C 
ATOM     15  C   UNL     1     104.229  11.278 -28.407  0.00  0.00    +0.000 C 
ATOM     16  C   UNL     1     103.481  10.196 -27.624  0.00  0.00    +0.000 C 
ATOM     17  C   UNL     1     102.134   9.694 -28.143  0.00  0.00    +0.000 C 
ATOM     18  C   UNL     1     101.482   9.035 -26.912  0.00  0.00    +0.000 C 
ATOM     19  C   UNL     1     102.379   9.390 -25.711  0.00  0.00    +0.000 C 
ATOM     20  O   UNL     1     101.639   9.587 -24.522  0.00  0.00    +0.000 OA
ENDROOT
TORSDOF 0
ENDMDL
MODEL 6
REMARK VINA RESULT:      -7.2      2.552      4.092
REMARK  Name = 
REMARK  0 active torsions:
REMARK  status: ('A' for Active; 'I' for Inactive)
REMARK                            x       y       z     vdW  Elec       q    Type
REMARK                         _______ _______ _______ _____ _____    ______ ____
ROOT
ATOM      1  C   UNL     1     105.269  15.377 -25.349  0.00  0.00    +0.000 C 
ATOM      2  C   UNL     1     106.212  14.161 -25.166  0.00  0.00    +0.000 C 
ATOM      3  C   UNL     1     107.669  14.621 -25.285  0.00  0.00    +0.000 C 
ATOM      4  C   UNL     1     108.004  15.064 -26.719  0.00  0.00    +0.000 C 
ATOM      5  C   UNL     1     107.631  14.020 -27.803  0.00  0.00    +0.000 C 
ATOM      6  C   UNL     1     107.856  14.487 -29.239  0.00  0.00    +0.000 A 
ATOM      7  C   UNL     1     108.833  15.451 -29.552  0.00  0.00    +0.000 A 
ATOM      8  C   UNL     1     109.046  15.872 -30.866  0.00  0.00    +0.000 A 
ATOM      9  C   UNL     1     108.294  15.314 -31.890  0.00  0.00    +0.000 A 
ATOM     10  O   UNL     1     108.459  15.703 -33.184  0.00  0.00    +0.000 OA
ATOM     11  C   UNL     1     107.345  14.338 -31.616  0.00  0.00    +0.000 A 
ATOM     12  C   UNL     1     107.122  13.908 -30.295  0.00  0.00    +0.000 A 
ATOM     13  C   UNL     1     106.046  12.872 -30.066  0.00  0.00    +0.000 C 
ATOM     14  C   UNL     1     105.956  12.348 -28.634  0.00  0.00    +0.000 C 
ATOM     15  C   UNL     1     106.178  13.481 -27.627  0.00  0.00    +0.000 C 
ATOM     16  C   UNL     1     105.988  13.020 -26.180  0.00  0.00    +0.000 C 
ATOM     17  C   UNL     1     104.644  12.431 -25.753  0.00  0.00    +0.000 C 
ATOM     18  C   UNL     1     104.653  12.554 -24.217  0.00  0.00    +0.000 C 
ATOM     19  C   UNL     1     105.888  13.404 -23.863  0.00  0.00    +0.000 C 
ATOM     20  O   UNL     1     105.666  14.243 -22.746  0.00  0.00    +0.000 OA
ENDROOT
TORSDOF 0
ENDMDL
MODEL 7
REMARK VINA RESULT:      -7.2     31.928     33.624
REMARK  Name = 
REMARK  0 active torsions:
REMARK  status: ('A' for Active; 'I' for Inactive)
REMARK                            x       y       z     vdW  Elec       q    Type
REMARK                         _______ _______ _______ _____ _____    ______ ____
ROOT
ATOM      1  C   UNL     1      96.192  36.890 -12.973  0.00  0.00    +0.000 C 
ATOM      2  C   UNL     1      96.267  37.318 -11.486  0.00  0.00    +0.000 C 
ATOM      3  C   UNL     1      95.376  36.399 -10.644  0.00  0.00    +0.000 C 
ATOM      4  C   UNL     1      93.886  36.619 -10.957  0.00  0.00    +0.000 C 
ATOM      5  C   UNL     1      93.439  38.101 -10.877  0.00  0.00    +0.000 C 
ATOM      6  C   UNL     1      91.990  38.351 -11.291  0.00  0.00    +0.000 A 
ATOM      7  C   UNL     1      91.008  37.351 -11.161  0.00  0.00    +0.000 A 
ATOM      8  C   UNL     1      89.681  37.581 -11.530  0.00  0.00    +0.000 A 
ATOM      9  C   UNL     1      89.317  38.828 -12.017  0.00  0.00    +0.000 A 
ATOM     10  O   UNL     1      88.038  39.094 -12.401  0.00  0.00    +0.000 OA
ATOM     11  C   UNL     1      90.257  39.844 -12.127  0.00  0.00    +0.000 A 
ATOM     12  C   UNL     1      91.597  39.622 -11.759  0.00  0.00    +0.000 A 
ATOM     13  C   UNL     1      92.574  40.760 -11.942  0.00  0.00    +0.000 C 
ATOM     14  C   UNL     1      93.974  40.497 -11.391  0.00  0.00    +0.000 C 
ATOM     15  C   UNL     1      94.400  39.049 -11.658  0.00  0.00    +0.000 C 
ATOM     16  C   UNL     1      95.839  38.775 -11.217  0.00  0.00    +0.000 C 
ATOM     17  C   UNL     1      96.977  39.593 -11.829  0.00  0.00    +0.000 C 
ATOM     18  C   UNL     1      98.235  38.745 -11.554  0.00  0.00    +0.000 C 
ATOM     19  C   UNL     1      97.731  37.396 -11.009  0.00  0.00    +0.000 C 
ATOM     20  O   UNL     1      98.534  36.309 -11.427  0.00  0.00    +0.000 OA
ENDROOT
TORSDOF 0
ENDMDL
MODEL 8
REMARK VINA RESULT:      -7.1     36.178     37.576
REMARK  Name = 
REMARK  0 active torsions:
REMARK  status: ('A' for Active; 'I' for Inactive)
REMARK                            x       y       z     vdW  Elec       q    Type
REMARK                         _______ _______ _______ _____ _____    ______ ____
ROOT
ATOM      1  C   UNL     1      88.238  36.206 -11.701  0.00  0.00    +0.000 C 
ATOM      2  C   UNL     1      88.448  36.886 -10.325  0.00  0.00    +0.000 C 
ATOM      3  C   UNL     1      87.391  36.379  -9.338  0.00  0.00    +0.000 C 
ATOM      4  C   UNL     1      85.984  36.870  -9.717  0.00  0.00    +0.000 C 
ATOM      5  C   UNL     1      85.891  38.402  -9.936  0.00  0.00    +0.000 C 
ATOM      6  C   UNL     1      84.529  38.893 -10.420  0.00  0.00    +0.000 A 
ATOM      7  C   UNL     1      83.347  38.191 -10.117  0.00  0.00    +0.000 A 
ATOM      8  C   UNL     1      82.099  38.644 -10.550  0.00  0.00    +0.000 A 
ATOM      9  C   UNL     1      82.018  39.822 -11.278  0.00  0.00    +0.000 A 
ATOM     10  O   UNL     1      80.825  40.295 -11.731  0.00  0.00    +0.000 OA
ATOM     11  C   UNL     1      83.164  40.553 -11.565  0.00  0.00    +0.000 A 
ATOM     12  C   UNL     1      84.425  40.105 -11.134  0.00  0.00    +0.000 A 
ATOM     13  C   UNL     1      85.633  40.929 -11.516  0.00  0.00    +0.000 C 
ATOM     14  C   UNL     1      86.949  40.464 -10.896  0.00  0.00    +0.000 C 
ATOM     15  C   UNL     1      87.024  38.933 -10.867  0.00  0.00    +0.000 C 
ATOM     16  C   UNL     1      88.373  38.426 -10.354  0.00  0.00    +0.000 C 
ATOM     17  C   UNL     1      89.651  38.825 -11.090  0.00  0.00    +0.000 C 
ATOM     18  C   UNL     1      90.688  37.781 -10.631  0.00  0.00    +0.000 C 
ATOM     19  C   UNL     1      89.902  36.716  -9.843  0.00  0.00    +0.000 C 
ATOM     20  O   UNL     1      90.424  35.414 -10.025  0.00  0.00    +0.000 OA
ENDROOT
TORSDOF 0
ENDMDL
MODEL 9
REMARK VINA RESULT:      -7.0     39.239     40.949
REMARK  Name = 
REMARK  0 active torsions:
REMARK  status: ('A' for Active; 'I' for Inactive)
REMARK                            x       y       z     vdW  Elec       q    Type
REMARK                         _______ _______ _______ _____ _____    ______ ____
ROOT
ATOM      1  C   UNL     1     108.637  22.518  11.046  0.00  0.00    +0.000 C 
ATOM      2  C   UNL     1     109.422  21.431  11.823  0.00  0.00    +0.000 C 
ATOM      3  C   UNL     1     110.260  22.092  12.921  0.00  0.00    +0.000 C 
ATOM      4  C   UNL     1     111.401  22.936  12.328  0.00  0.00    +0.000 C 
ATOM      5  C   UNL     1     112.279  22.175  11.302  0.00  0.00    +0.000 C 
ATOM      6  C   UNL     1     113.347  23.028  10.622  0.00  0.00    +0.000 A 
ATOM      7  C   UNL     1     113.894  24.160  11.256  0.00  0.00    +0.000 A 
ATOM      8  C   UNL     1     114.878  24.935  10.639  0.00  0.00    +0.000 A 
ATOM      9  C   UNL     1     115.342  24.573   9.384  0.00  0.00    +0.000 A 
ATOM     10  O   UNL     1     116.290  25.307   8.739  0.00  0.00    +0.000 OA
ATOM     11  C   UNL     1     114.844  23.444   8.746  0.00  0.00    +0.000 A 
ATOM     12  C   UNL     1     113.852  22.656   9.359  0.00  0.00    +0.000 A 
ATOM     13  C   UNL     1     113.327  21.465   8.591  0.00  0.00    +0.000 C 
ATOM     14  C   UNL     1     112.360  20.576   9.371  0.00  0.00    +0.000 C 
ATOM     15  C   UNL     1     111.422  21.424  10.237  0.00  0.00    +0.000 C 
ATOM     16  C   UNL     1     110.366  20.577  10.951  0.00  0.00    +0.000 C 
ATOM     17  C   UNL     1     109.404  19.727  10.122  0.00  0.00    +0.000 C 
ATOM     18  C   UNL     1     108.234  19.442  11.084  0.00  0.00    +0.000 C 
ATOM     19  C   UNL     1     108.476  20.322  12.325  0.00  0.00    +0.000 C 
ATOM     20  O   UNL     1     107.272  20.802  12.891  0.00  0.00    +0.000 OA
ENDROOT
TORSDOF 0
ENDMDL
