REMARK  Name = 
REMARK  0 active torsions:
REMARK  status: ('A' for Active; 'I' for Inactive)
REMARK                            x       y       z     vdW  Elec       q    Type
REMARK                         _______ _______ _______ _____ _____    ______ ____
ROOT
ATOM      1  C   UNL     1      -2.569   0.793  -1.651  0.00  0.00    +0.000 C 
ATOM      2  C   UNL     1      -2.652   0.545  -0.124  0.00  0.00    +0.000 C 
ATOM      3  C   UNL     1      -1.983   1.706   0.619  0.00  0.00    +0.000 C 
ATOM      4  C   UNL     1      -0.463   1.722   0.388  0.00  0.00    +0.000 C 
ATOM      5  C   UNL     1       0.231   0.366   0.677  0.00  0.00    +0.000 C 
ATOM      6  C   UNL     1       1.722   0.332   0.348  0.00  0.00    +0.000 A 
ATOM      7  C   UNL     1       2.506   1.501   0.378  0.00  0.00    +0.000 A 
ATOM      8  C   UNL     1       3.871   1.470   0.087  0.00  0.00    +0.000 A 
ATOM      9  C   UNL     1       4.474   0.259  -0.219  0.00  0.00    +0.000 A 
ATOM     10  O   UNL     1       5.799   0.183  -0.522  0.00  0.00    +0.000 OA
ATOM     11  C   UNL     1       3.733  -0.916  -0.226  0.00  0.00    +0.000 A 
ATOM     12  C   UNL     1       2.357  -0.895   0.065  0.00  0.00    +0.000 A 
ATOM     13  C   UNL     1       1.605  -2.204   0.000  0.00  0.00    +0.000 C 
ATOM     14  C   UNL     1       0.152  -2.132   0.465  0.00  0.00    +0.000 C 
ATOM     15  C   UNL     1      -0.504  -0.829  -0.004  0.00  0.00    +0.000 C 
ATOM     16  C   UNL     1      -1.992  -0.767   0.348  0.00  0.00    +0.000 C 
ATOM     17  C   UNL     1      -2.933  -1.845  -0.188  0.00  0.00    +0.000 C 
ATOM     18  C   UNL     1      -4.333  -1.211  -0.070  0.00  0.00    +0.000 C 
ATOM     19  C   UNL     1      -4.104   0.264   0.310  0.00  0.00    +0.000 C 
ATOM     20  O   UNL     1      -5.060   1.128  -0.274  0.00  0.00    +0.000 OA
ENDROOT
TORSDOF 0
