REMARK  Name = 
REMARK  15 active torsions:
REMARK  status: ('A' for Active; 'I' for Inactive)
REMARK    1  A    between atoms: C_1  and  C_8
REMARK    2  A    between atoms: C_1  and  C_25
REMARK    3  A    between atoms: C_4  and  C_10
REMARK    4  A    between atoms: C_10  and  O_11
REMARK    5  A    between atoms: O_11  and  P_12
REMARK    6  A    between atoms: P_12  and  N_13
REMARK    7  A    between atoms: P_12  and  O_35
REMARK    8  A    between atoms: N_13  and  C_14
REMARK    9  A    between atoms: C_14  and  C_15
REMARK   10  A    between atoms: C_15  and  O_17
REMARK   11  A    between atoms: O_17  and  C_19
REMARK   12  A    between atoms: C_19  and  C_20
REMARK   13  A    between atoms: C_20  and  C_21
REMARK   14  A    between atoms: C_20  and  C_22
REMARK   15  A    between atoms: O_35  and  C_37
REMARK                            x       y       z     vdW  Elec       q    Type
REMARK                         _______ _______ _______ _____ _____    ______ ____
ROOT
ATOM      1  O   UNL     1       2.650  -4.560   3.690  0.00  0.00    +0.000 OA
ENDROOT
BRANCH   1   2
ATOM      2  P   UNL     1       1.240  -4.053   3.080  0.00  0.00    +0.000 P 
ATOM      3  O   UNL     1       0.074  -4.835   3.603  0.00  0.00    +0.000 OA
BRANCH   2   4
ATOM      4  N   UNL     1       1.231  -2.453   3.402  0.00  0.00    +0.000 NA
BRANCH   4   5
ATOM      5  C   UNL     1       0.147  -1.531   3.044  0.00  0.00    +0.000 C 
ATOM      6  C   UNL     1      -1.179  -1.895   3.715  0.00  0.00    +0.000 C 
BRANCH   5   7
ATOM      7  C   UNL     1       0.528  -0.121   3.549  0.00  0.00    +0.000 C 
ATOM      8  O   UNL     1       1.525   0.136   4.215  0.00  0.00    +0.000 OA
BRANCH   7   9
ATOM      9  O   UNL     1      -0.442   0.782   3.220  0.00  0.00    +0.000 OA
BRANCH   9  10
ATOM     10  C   UNL     1      -0.611   1.860   4.154  0.00  0.00    +0.000 C 
BRANCH  10  11
ATOM     11  C   UNL     1      -0.184   3.231   3.596  0.00  0.00    +0.000 C 
BRANCH  11  12
ATOM     12  C   UNL     1      -0.986   3.542   2.308  0.00  0.00    +0.000 C 
ATOM     13  C   UNL     1      -0.587   4.828   1.595  0.00  0.00    +0.000 C 
ENDBRANCH  11  12
BRANCH  11  14
ATOM     14  C   UNL     1      -0.403   4.324   4.671  0.00  0.00    +0.000 C 
ATOM     15  C   UNL     1       0.402   4.125   5.951  0.00  0.00    +0.000 C 
ENDBRANCH  11  14
ENDBRANCH  10  11
ENDBRANCH   9  10
ENDBRANCH   7   9
ENDBRANCH   5   7
ENDBRANCH   4   5
ENDBRANCH   2   4
BRANCH   2  16
ATOM     16  O   UNL     1       1.470  -4.314   1.505  0.00  0.00    +0.000 OA
BRANCH  16  17
ATOM     17  C   UNL     1       2.334  -3.557   0.774  0.00  0.00    +0.000 A 
ATOM     18  C   UNL     1       3.634  -3.282   1.191  0.00  0.00    +0.000 A 
ATOM     19  C   UNL     1       1.815  -2.975  -0.375  0.00  0.00    +0.000 A 
ATOM     20  C   UNL     1       4.364  -2.294   0.543  0.00  0.00    +0.000 A 
ATOM     21  C   UNL     1       2.551  -1.995  -1.031  0.00  0.00    +0.000 A 
ATOM     22  C   UNL     1       3.808  -1.629  -0.549  0.00  0.00    +0.000 A 
ENDBRANCH  16  17
ENDBRANCH   2  16
ENDBRANCH   1   2
BRANCH   1  23
ATOM     23  C   UNL     1       2.954  -4.362   5.061  0.00  0.00    +0.000 C 
BRANCH  23  27
ATOM     24  C   UNL     1       2.283  -7.277   6.764  0.00  0.00    +0.000 C 
ATOM     25  O   UNL     1       2.110  -6.519   5.559  0.00  0.00    +0.000 OA
ATOM     26  C   UNL     1       2.950  -6.299   7.753  0.00  0.00    +0.000 C 
ATOM     27  C   UNL     1       1.975  -5.126   5.925  0.00  0.00    +0.000 C 
ATOM     28  C   UNL     1       2.250  -4.991   7.415  0.00  0.00    +0.000 C 
ATOM     29  O   UNL     1       2.827  -6.559   9.151  0.00  0.00    +0.000 OA
ATOM     30  O   UNL     1       1.038  -4.898   8.193  0.00  0.00    +0.000 OA
BRANCH  24  31
ATOM     31  C   UNL     1       3.038  -8.542   6.431  0.00  0.00    +0.000 A 
ATOM     32  N   UNL     1       3.519  -9.412   7.393  0.00  0.00    +0.000 N 
ATOM     33  C   UNL     1       3.243  -9.162   5.203  0.00  0.00    +0.000 A 
ATOM     34  C   UNL     1       4.031 -10.529   6.795  0.00  0.00    +0.000 A 
ATOM     35  C   UNL     1       3.865 -10.413   5.434  0.00  0.00    +0.000 A 
ATOM     36  N   UNL     1       3.461  -9.259   8.722  0.00  0.00    +0.000 NA
ATOM     37  C   UNL     1       3.976 -10.232   9.408  0.00  0.00    +0.000 A 
ATOM     38  C   UNL     1       4.583 -11.546   7.631  0.00  0.00    +0.000 A 
ATOM     39  N   UNL     1       4.546 -11.379   8.915  0.00  0.00    +0.000 NA
ATOM     40  N   UNL     1       5.138 -12.699   7.151  0.00  0.00    +0.000 NA
ENDBRANCH  24  31
BRANCH  24  41
ATOM     41  C   UNL     1       0.907  -7.694   7.258  0.00  0.00    +0.000 C 
ATOM     42  N   UNL     1      -0.234  -8.041   7.668  0.00  0.00    +0.000 NA
ENDBRANCH  24  41
ENDBRANCH  23  27
ENDBRANCH   1  23
TORSDOF 15
