REMARK  2 active torsions:
REMARK  status: ('A' for Active; 'I' for Inactive)
REMARK    1  A    between atoms: O_19  and  C_5 
REMARK    2  A    between atoms: O_21  and  C_18 
ROOT
HETATM    1  C   UNL     1      -2.649   0.542  -0.116  1.00  0.00    -0.014 C 
HETATM    2  C   UNL     1      -1.992  -0.774   0.347  1.00  0.00     0.001 C 
HETATM    3  C   UNL     1      -0.502  -0.839  -0.002  1.00  0.00    -0.001 C 
HETATM    4  C   UNL     1       0.233   0.357   0.679  1.00  0.00     0.023 C 
HETATM    5  C   UNL     1      -4.102   0.269   0.316  1.00  0.00     0.126 C 
HETATM    6  C   UNL     1      -1.975   1.697   0.630  1.00  0.00     0.013 C 
HETATM    7  C   UNL     1      -2.938  -1.842  -0.198  1.00  0.00     0.008 C 
HETATM    8  C   UNL     1      -0.460   1.712   0.385  1.00  0.00     0.010 C 
HETATM    9  C   UNL     1      -4.335  -1.203  -0.070  1.00  0.00     0.033 C 
HETATM   10  C   UNL     1       0.154  -2.140   0.474  1.00  0.00     0.010 C 
HETATM   11  C   UNL     1      -2.576   0.799  -1.643  1.00  0.00     0.018 C 
HETATM   12  C   UNL     1       1.722   0.327   0.350  1.00  0.00    -0.047 A 
HETATM   13  C   UNL     1       1.616  -2.212   0.031  1.00  0.00     0.039 C 
HETATM   14  C   UNL     1       2.363  -0.898   0.071  1.00  0.00    -0.049 A 
HETATM   15  C   UNL     1       2.502   1.500   0.372  1.00  0.00     0.011 A 
HETATM   16  C   UNL     1       3.735  -0.912  -0.231  1.00  0.00     0.044 A 
HETATM   17  C   UNL     1       3.864   1.475   0.075  1.00  0.00     0.037 A 
HETATM   18  C   UNL     1       4.471   0.267  -0.233  1.00  0.00     0.066 A 
ENDROOT
BRANCH   5  19
HETATM   19  O   UNL     1      -5.048   1.118  -0.305  1.00  0.00    -0.395 OA
HETATM   20  H   UNL     1      -4.834   2.031  -0.051  1.00  0.00     0.210 HD
ENDBRANCH   5  19
BRANCH  18  21
HETATM   21  O   UNL     1       5.795   0.198  -0.543  1.00  0.00    -0.361 OA
HETATM   22  H   UNL     1       6.162   1.098  -0.525  1.00  0.00     0.217 HD
ENDBRANCH  18  21
TORSDOF 2
