
     RDKit          3D

 20 23  0  0  0  0  0  0  0  0999 V2000
    2.0563   -2.3357   -0.1110 C   0  0  0  0  0  0  0  0  0  0  0  0
    2.3205   -1.0344    0.4342 C   0  0  2  0  0  0  0  0  0  0  0  0
    1.8949   -0.6553    1.7613 C   0  0  0  0  0  0  0  0  0  0  0  0
    0.3676   -0.4614    1.7473 C   0  0  0  0  0  0  0  0  0  0  0  0
    0.1866    0.7727    0.7227 C   0  0  2  0  0  0  0  0  0  0  0  0
   -1.3527    0.8644    0.7145 C   0  0  0  0  0  0  0  0  0  0  0  0
   -1.9785    1.0651    1.9086 C   0  0  0  0  0  0  0  0  0  0  0  0
   -3.3834    1.1628    1.9960 C   0  0  0  0  0  0  0  0  0  0  0  0
   -4.1476    1.0550    0.8606 C   0  0  0  0  0  0  0  0  0  0  0  0
   -5.5385    1.1540    0.9638 O   0  0  0  0  0  0  0  0  0  0  0  0
   -3.5130    0.8526   -0.3412 C   0  0  0  0  0  0  0  0  0  0  0  0
   -2.1070    0.7569   -0.4135 C   0  0  0  0  0  0  0  0  0  0  0  0
   -1.5799    0.5364   -1.7876 C   0  0  0  0  0  0  0  0  0  0  0  0
   -0.0995    0.8555   -1.6680 C   0  0  0  0  0  0  0  0  0  0  0  0
    0.3400   -0.2644   -0.6243 C   0  0  1  0  0  0  0  0  0  0  0  0
    1.9601    0.1483   -0.6312 C   0  0  2  0  0  0  0  0  0  0  0  0
    2.4595   -0.7695   -1.8485 C   0  0  0  0  0  0  0  0  0  0  0  0
    3.8158   -1.1730   -1.3789 C   0  0  0  0  0  0  0  0  0  0  0  0
    3.8699   -0.6154    0.1633 C   0  0  2  0  0  0  0  0  0  0  0  0
    4.4288   -1.9146    0.7002 O   0  0  0  0  0  0  0  0  0  0  0  0
  2  1  1  6
  2  3  1  0
  3  4  1  0
  5  4  1  1
  5  6  1  0
  6  7  2  0
  7  8  1  0
  8  9  2  0
  9 10  1  0
  9 11  1  0
 11 12  2  0
 12 13  1  0
 13 14  1  0
 15 14  1  6
 15 16  1  0
 16 17  1  6
 17 18  1  0
 18 19  1  0
 19 20  1  1
 16  2  1  0
 19  2  1  0
 15  5  1  0
 12  6  1  0
M  END
>  <zinc_id>  (1) 
ZINC000013520815

>  <smiles>  (1) 
C[C@]12CC[C@@H]3c4ccc(O)cc4CC[C@H]3[C@@H]1CC[C@@H]2O

$$$$
