MODEL 1
REMARK VINA RESULT:      -7.9      0.000      0.000
REMARK  2 active torsions:
REMARK  status: ('A' for Active; 'I' for Inactive)
REMARK    1  A    between atoms: O_19  and  C_5 
REMARK    2  A    between atoms: O_21  and  C_18 
ROOT
HETATM    1  C   UNL     1      86.369  39.560  -8.787  1.00  0.00    -0.014 C 
HETATM    2  C   UNL     1      86.799  39.570 -10.267  1.00  0.00     0.001 C 
HETATM    3  C   UNL     1      88.233  39.068 -10.463  1.00  0.00    -0.001 C 
HETATM    4  C   UNL     1      88.341  37.610  -9.917  1.00  0.00     0.023 C 
HETATM    5  C   UNL     1      84.956  40.157  -8.927  1.00  0.00     0.126 C 
HETATM    6  C   UNL     1      86.395  38.110  -8.294  1.00  0.00     0.013 C 
HETATM    7  C   UNL     1      86.428  40.978 -10.725  1.00  0.00     0.008 C 
HETATM    8  C   UNL     1      87.784  37.484  -8.477  1.00  0.00     0.010 C 
HETATM    9  C   UNL     1      85.131  41.292  -9.952  1.00  0.00     0.033 C 
HETATM   10  C   UNL     1      88.654  39.061 -11.937  1.00  0.00     0.010 C 
HETATM   11  C   UNL     1      87.240  40.440  -7.854  1.00  0.00     0.018 C 
HETATM   12  C   UNL     1      89.760  37.077 -10.093  1.00  0.00    -0.047 A 
HETATM   13  C   UNL     1      90.117  38.642 -12.089  1.00  0.00     0.039 C 
HETATM   14  C   UNL     1      90.575  37.558 -11.139  1.00  0.00    -0.049 A 
HETATM   15  C   UNL     1      90.270  36.061  -9.262  1.00  0.00     0.011 A 
HETATM   16  C   UNL     1      91.879  37.060 -11.290  1.00  0.00     0.044 A 
HETATM   17  C   UNL     1      91.565  35.569  -9.422  1.00  0.00     0.037 A 
HETATM   18  C   UNL     1      92.365  36.079 -10.433  1.00  0.00     0.066 A 
ENDROOT
BRANCH   5  19
HETATM   19  O   UNL     1      84.422  40.644  -7.710  1.00  0.00    -0.395 OA
HETATM   20  H   UNL     1      84.349  39.892  -7.100  1.00  0.00     0.210 HD
ENDBRANCH   5  19
BRANCH  18  21
HETATM   21  O   UNL     1      93.640  35.639 -10.617  1.00  0.00    -0.361 OA
HETATM   22  H   UNL     1      93.998  36.060 -11.417  1.00  0.00     0.217 HD
ENDBRANCH  18  21
TORSDOF 2
ENDMDL
MODEL 2
REMARK VINA RESULT:      -7.8      2.002      6.511
REMARK  2 active torsions:
REMARK  status: ('A' for Active; 'I' for Inactive)
REMARK    1  A    between atoms: O_19  and  C_5 
REMARK    2  A    between atoms: O_21  and  C_18 
ROOT
HETATM    1  C   UNL     1      87.825  36.004  -9.873  1.00  0.00    -0.014 C 
HETATM    2  C   UNL     1      88.422  37.380 -10.230  1.00  0.00     0.001 C 
HETATM    3  C   UNL     1      87.352  38.471 -10.341  1.00  0.00    -0.001 C 
HETATM    4  C   UNL     1      86.600  38.587  -8.979  1.00  0.00     0.023 C 
HETATM    5  C   UNL     1      89.109  35.153  -9.899  1.00  0.00     0.126 C 
HETATM    6  C   UNL     1      87.168  36.114  -8.494  1.00  0.00     0.013 C 
HETATM    7  C   UNL     1      89.306  37.070 -11.436  1.00  0.00     0.008 C 
HETATM    8  C   UNL     1      86.096  37.211  -8.472  1.00  0.00     0.010 C 
HETATM    9  C   UNL     1      89.872  35.668 -11.133  1.00  0.00     0.033 C 
HETATM   10  C   UNL     1      87.949  39.842 -10.678  1.00  0.00     0.010 C 
HETATM   11  C   UNL     1      86.794  35.461 -10.896  1.00  0.00     0.018 C 
HETATM   12  C   UNL     1      85.522  39.664  -9.054  1.00  0.00    -0.047 A 
HETATM   13  C   UNL     1      86.849  40.887 -10.871  1.00  0.00     0.039 C 
HETATM   14  C   UNL     1      85.669  40.755  -9.935  1.00  0.00    -0.049 A 
HETATM   15  C   UNL     1      84.392  39.630  -8.213  1.00  0.00     0.011 A 
HETATM   16  C   UNL     1      84.669  41.740  -9.994  1.00  0.00     0.044 A 
HETATM   17  C   UNL     1      83.407  40.615  -8.277  1.00  0.00     0.037 A 
HETATM   18  C   UNL     1      83.549  41.662  -9.175  1.00  0.00     0.066 A 
ENDROOT
BRANCH   5  19
HETATM   19  O   UNL     1      88.866  33.762  -9.990  1.00  0.00    -0.395 OA
HETATM   20  H   UNL     1      89.282  33.445 -10.809  1.00  0.00     0.210 HD
ENDBRANCH   5  19
BRANCH  18  21
HETATM   21  O   UNL     1      82.605  42.637  -9.280  1.00  0.00    -0.361 OA
HETATM   22  H   UNL     1      82.034  42.598  -8.495  1.00  0.00     0.217 HD
ENDBRANCH  18  21
TORSDOF 2
ENDMDL
MODEL 3
REMARK VINA RESULT:      -7.6      2.840      4.846
REMARK  2 active torsions:
REMARK  status: ('A' for Active; 'I' for Inactive)
REMARK    1  A    between atoms: O_19  and  C_5 
REMARK    2  A    between atoms: O_21  and  C_18 
ROOT
HETATM    1  C   UNL     1      88.753  36.930 -10.217  1.00  0.00    -0.014 C 
HETATM    2  C   UNL     1      89.957  36.414  -9.403  1.00  0.00     0.001 C 
HETATM    3  C   UNL     1      91.298  36.850 -10.001  1.00  0.00    -0.001 C 
HETATM    4  C   UNL     1      91.352  38.409 -10.048  1.00  0.00     0.023 C 
HETATM    5  C   UNL     1      87.606  36.288  -9.413  1.00  0.00     0.126 C 
HETATM    6  C   UNL     1      88.772  38.460 -10.176  1.00  0.00     0.013 C 
HETATM    7  C   UNL     1      89.653  34.926  -9.244  1.00  0.00     0.008 C 
HETATM    8  C   UNL     1      90.095  39.017 -10.720  1.00  0.00     0.010 C 
HETATM    9  C   UNL     1      88.120  34.871  -9.098  1.00  0.00     0.033 C 
HETATM   10  C   UNL     1      92.493  36.352  -9.182  1.00  0.00     0.010 C 
HETATM   11  C   UNL     1      88.716  36.452 -11.691  1.00  0.00     0.018 C 
HETATM   12  C   UNL     1      92.675  38.880 -10.642  1.00  0.00    -0.047 A 
HETATM   13  C   UNL     1      93.815  36.726  -9.854  1.00  0.00     0.039 C 
HETATM   14  C   UNL     1      93.832  38.084 -10.520  1.00  0.00    -0.049 A 
HETATM   15  C   UNL     1      92.790  40.135 -11.273  1.00  0.00     0.011 A 
HETATM   16  C   UNL     1      95.045  38.529 -11.072  1.00  0.00     0.044 A 
HETATM   17  C   UNL     1      93.999  40.570 -11.814  1.00  0.00     0.037 A 
HETATM   18  C   UNL     1      95.119  39.759 -11.717  1.00  0.00     0.066 A 
ENDROOT
BRANCH   5  19
HETATM   19  O   UNL     1      86.377  36.244 -10.113  1.00  0.00    -0.395 OA
HETATM   20  H   UNL     1      85.771  36.869  -9.682  1.00  0.00     0.210 HD
ENDBRANCH   5  19
BRANCH  18  21
HETATM   21  O   UNL     1      96.316  40.137 -12.244  1.00  0.00    -0.361 OA
HETATM   22  H   UNL     1      96.589  40.969 -11.821  1.00  0.00     0.217 HD
ENDBRANCH  18  21
TORSDOF 2
ENDMDL
MODEL 4
REMARK VINA RESULT:      -7.6      0.977      6.685
REMARK  2 active torsions:
REMARK  status: ('A' for Active; 'I' for Inactive)
REMARK    1  A    between atoms: O_19  and  C_5 
REMARK    2  A    between atoms: O_21  and  C_18 
ROOT
HETATM    1  C   UNL     1      90.356  37.630 -11.044  1.00  0.00    -0.014 C 
HETATM    2  C   UNL     1      89.425  36.929 -10.034  1.00  0.00     0.001 C 
HETATM    3  C   UNL     1      88.351  37.869  -9.478  1.00  0.00    -0.001 C 
HETATM    4  C   UNL     1      87.491  38.415 -10.659  1.00  0.00     0.023 C 
HETATM    5  C   UNL     1      91.321  36.470 -11.351  1.00  0.00     0.126 C 
HETATM    6  C   UNL     1      89.509  38.080 -12.237  1.00  0.00     0.013 C 
HETATM    7  C   UNL     1      90.403  36.255  -9.074  1.00  0.00     0.008 C 
HETATM    8  C   UNL     1      88.367  39.004 -11.795  1.00  0.00     0.010 C 
HETATM    9  C   UNL     1      91.574  35.822  -9.978  1.00  0.00     0.033 C 
HETATM   10  C   UNL     1      87.416  37.166  -8.487  1.00  0.00     0.010 C 
HETATM   11  C   UNL     1      91.132  38.844 -10.473  1.00  0.00     0.018 C 
HETATM   12  C   UNL     1      86.411  39.359 -10.143  1.00  0.00    -0.047 A 
HETATM   13  C   UNL     1      86.414  38.152  -7.884  1.00  0.00     0.039 C 
HETATM   14  C   UNL     1      85.897  39.204  -8.838  1.00  0.00    -0.049 A 
HETATM   15  C   UNL     1      85.861  40.364 -10.963  1.00  0.00     0.011 A 
HETATM   16  C   UNL     1      84.902  40.081  -8.374  1.00  0.00     0.044 A 
HETATM   17  C   UNL     1      84.871  41.227 -10.494  1.00  0.00     0.037 A 
HETATM   18  C   UNL     1      84.403  41.084  -9.197  1.00  0.00     0.066 A 
ENDROOT
BRANCH   5  19
HETATM   19  O   UNL     1      92.532  36.883 -11.955  1.00  0.00    -0.395 OA
HETATM   20  H   UNL     1      92.477  37.843 -12.096  1.00  0.00     0.210 HD
ENDBRANCH   5  19
BRANCH  18  21
HETATM   21  O   UNL     1      83.447  41.912  -8.693  1.00  0.00    -0.361 OA
HETATM   22  H   UNL     1      83.873  42.743  -8.422  1.00  0.00     0.217 HD
ENDBRANCH  18  21
TORSDOF 2
ENDMDL
MODEL 5
REMARK VINA RESULT:      -7.3      1.854      2.458
REMARK  2 active torsions:
REMARK  status: ('A' for Active; 'I' for Inactive)
REMARK    1  A    between atoms: O_19  and  C_5 
REMARK    2  A    between atoms: O_21  and  C_18 
ROOT
HETATM    1  C   UNL     1      84.279  39.428  -9.688  1.00  0.00    -0.014 C 
HETATM    2  C   UNL     1      85.599  39.880 -10.345  1.00  0.00     0.001 C 
HETATM    3  C   UNL     1      86.788  39.008  -9.932  1.00  0.00    -0.001 C 
HETATM    4  C   UNL     1      86.502  37.530 -10.344  1.00  0.00     0.023 C 
HETATM    5  C   UNL     1      83.333  40.509 -10.241  1.00  0.00     0.126 C 
HETATM    6  C   UNL     1      83.969  38.009 -10.174  1.00  0.00     0.013 C 
HETATM    7  C   UNL     1      85.631  41.379 -10.055  1.00  0.00     0.008 C 
HETATM    8  C   UNL     1      85.117  37.043  -9.847  1.00  0.00     0.010 C 
HETATM    9  C   UNL     1      84.153  41.808 -10.142  1.00  0.00     0.033 C 
HETATM   10  C   UNL     1      88.096  39.448 -10.600  1.00  0.00     0.010 C 
HETATM   11  C   UNL     1      84.286  39.454  -8.138  1.00  0.00     0.018 C 
HETATM   12  C   UNL     1      87.666  36.629  -9.944  1.00  0.00    -0.047 A 
HETATM   13  C   UNL     1      89.276  38.615 -10.097  1.00  0.00     0.039 C 
HETATM   14  C   UNL     1      88.973  37.153  -9.857  1.00  0.00    -0.049 A 
HETATM   15  C   UNL     1      87.481  35.252  -9.710  1.00  0.00     0.011 A 
HETATM   16  C   UNL     1      90.036  36.313  -9.488  1.00  0.00     0.044 A 
HETATM   17  C   UNL     1      88.544  34.425  -9.348  1.00  0.00     0.037 A 
HETATM   18  C   UNL     1      89.816  34.964  -9.232  1.00  0.00     0.066 A 
ENDROOT
BRANCH   5  19
HETATM   19  O   UNL     1      82.115  40.616  -9.529  1.00  0.00    -0.395 OA
HETATM   20  H   UNL     1      81.515  41.169 -10.057  1.00  0.00     0.210 HD
ENDBRANCH   5  19
BRANCH  18  21
HETATM   21  O   UNL     1      90.880  34.197  -8.867  1.00  0.00    -0.361 OA
HETATM   22  H   UNL     1      91.621  34.786  -8.644  1.00  0.00     0.217 HD
ENDBRANCH  18  21
TORSDOF 2
ENDMDL
MODEL 6
REMARK VINA RESULT:      -7.0      3.865      5.900
REMARK  2 active torsions:
REMARK  status: ('A' for Active; 'I' for Inactive)
REMARK    1  A    between atoms: O_19  and  C_5 
REMARK    2  A    between atoms: O_21  and  C_18 
ROOT
HETATM    1  C   UNL     1      84.650  33.993  -8.925  1.00  0.00    -0.014 C 
HETATM    2  C   UNL     1      86.164  33.986  -9.219  1.00  0.00     0.001 C 
HETATM    3  C   UNL     1      86.700  35.380  -9.563  1.00  0.00    -0.001 C 
HETATM    4  C   UNL     1      86.424  36.341  -8.366  1.00  0.00     0.023 C 
HETATM    5  C   UNL     1      84.429  32.488  -8.686  1.00  0.00     0.126 C 
HETATM    6  C   UNL     1      84.410  34.870  -7.693  1.00  0.00     0.013 C 
HETATM    7  C   UNL     1      86.313  32.853 -10.232  1.00  0.00     0.008 C 
HETATM    8  C   UNL     1      84.944  36.293  -7.907  1.00  0.00     0.010 C 
HETATM    9  C   UNL     1      85.274  31.809  -9.779  1.00  0.00     0.033 C 
HETATM   10  C   UNL     1      88.207  35.375  -9.839  1.00  0.00     0.010 C 
HETATM   11  C   UNL     1      83.766  34.492 -10.096  1.00  0.00     0.018 C 
HETATM   12  C   UNL     1      86.942  37.742  -8.675  1.00  0.00    -0.047 A 
HETATM   13  C   UNL     1      88.692  36.761 -10.267  1.00  0.00     0.039 C 
HETATM   14  C   UNL     1      88.029  37.919  -9.555  1.00  0.00    -0.049 A 
HETATM   15  C   UNL     1      86.393  38.881  -8.053  1.00  0.00     0.011 A 
HETATM   16  C   UNL     1      88.497  39.215  -9.832  1.00  0.00     0.044 A 
HETATM   17  C   UNL     1      86.867  40.162  -8.331  1.00  0.00     0.037 A 
HETATM   18  C   UNL     1      87.913  40.321  -9.227  1.00  0.00     0.066 A 
ENDROOT
BRANCH   5  19
HETATM   19  O   UNL     1      83.073  32.093  -8.767  1.00  0.00    -0.395 OA
HETATM   20  H   UNL     1      83.006  31.412  -9.457  1.00  0.00     0.210 HD
ENDBRANCH   5  19
BRANCH  18  21
HETATM   21  O   UNL     1      88.398  41.555  -9.538  1.00  0.00    -0.361 OA
HETATM   22  H   UNL     1      87.877  42.220  -9.057  1.00  0.00     0.217 HD
ENDBRANCH  18  21
TORSDOF 2
ENDMDL
MODEL 7
REMARK VINA RESULT:      -6.9      3.802      5.709
REMARK  2 active torsions:
REMARK  status: ('A' for Active; 'I' for Inactive)
REMARK    1  A    between atoms: O_19  and  C_5 
REMARK    2  A    between atoms: O_21  and  C_18 
ROOT
HETATM    1  C   UNL     1      87.687  38.719  -9.914  1.00  0.00    -0.014 C 
HETATM    2  C   UNL     1      88.306  37.394 -10.404  1.00  0.00     0.001 C 
HETATM    3  C   UNL     1      87.563  36.167  -9.867  1.00  0.00    -0.001 C 
HETATM    4  C   UNL     1      86.075  36.229 -10.330  1.00  0.00     0.023 C 
HETATM    5  C   UNL     1      88.669  39.715 -10.559  1.00  0.00     0.126 C 
HETATM    6  C   UNL     1      86.256  38.803 -10.453  1.00  0.00     0.013 C 
HETATM    7  C   UNL     1      89.790  37.570 -10.092  1.00  0.00     0.008 C 
HETATM    8  C   UNL     1      85.419  37.596 -10.007  1.00  0.00     0.010 C 
HETATM    9  C   UNL     1      90.049  39.068 -10.346  1.00  0.00     0.033 C 
HETATM   10  C   UNL     1      88.168  34.851 -10.369  1.00  0.00     0.010 C 
HETATM   11  C   UNL     1      87.671  38.893  -8.373  1.00  0.00     0.018 C 
HETATM   12  C   UNL     1      85.302  35.022  -9.809  1.00  0.00    -0.047 A 
HETATM   13  C   UNL     1      87.462  33.647  -9.744  1.00  0.00     0.039 C 
HETATM   14  C   UNL     1      85.969  33.804  -9.562  1.00  0.00    -0.049 A 
HETATM   15  C   UNL     1      83.907  35.070  -9.618  1.00  0.00     0.011 A 
HETATM   16  C   UNL     1      85.246  32.699  -9.082  1.00  0.00     0.044 A 
HETATM   17  C   UNL     1      83.197  33.967  -9.146  1.00  0.00     0.037 A 
HETATM   18  C   UNL     1      83.875  32.789  -8.873  1.00  0.00     0.066 A 
ENDROOT
BRANCH   5  19
HETATM   19  O   UNL     1      88.616  41.011  -9.994  1.00  0.00    -0.395 OA
HETATM   20  H   UNL     1      88.365  40.914  -9.061  1.00  0.00     0.210 HD
ENDBRANCH   5  19
BRANCH  18  21
HETATM   21  O   UNL     1      83.224  31.691  -8.396  1.00  0.00    -0.361 OA
HETATM   22  H   UNL     1      83.360  31.647  -7.435  1.00  0.00     0.217 HD
ENDBRANCH  18  21
TORSDOF 2
ENDMDL
MODEL 8
REMARK VINA RESULT:      -6.8     14.762     17.479
REMARK  2 active torsions:
REMARK  status: ('A' for Active; 'I' for Inactive)
REMARK    1  A    between atoms: O_19  and  C_5 
REMARK    2  A    between atoms: O_21  and  C_18 
ROOT
HETATM    1  C   UNL     1      96.504  40.413 -22.708  1.00  0.00    -0.014 C 
HETATM    2  C   UNL     1      97.934  39.971 -23.080  1.00  0.00     0.001 C 
HETATM    3  C   UNL     1      97.948  38.725 -23.971  1.00  0.00    -0.001 C 
HETATM    4  C   UNL     1      97.157  39.027 -25.281  1.00  0.00     0.023 C 
HETATM    5  C   UNL     1      96.835  41.607 -21.793  1.00  0.00     0.126 C 
HETATM    6  C   UNL     1      95.773  40.791 -23.999  1.00  0.00     0.013 C 
HETATM    7  C   UNL     1      98.647  39.937 -21.730  1.00  0.00     0.008 C 
HETATM    8  C   UNL     1      95.755  39.622 -24.993  1.00  0.00     0.010 C 
HETATM    9  C   UNL     1      98.025  41.112 -20.950  1.00  0.00     0.033 C 
HETATM   10  C   UNL     1      99.369  38.297 -24.355  1.00  0.00     0.010 C 
HETATM   11  C   UNL     1      95.679  39.351 -21.937  1.00  0.00     0.018 C 
HETATM   12  C   UNL     1      97.147  37.805 -26.194  1.00  0.00    -0.047 A 
HETATM   13  C   UNL     1      99.352  37.001 -25.167  1.00  0.00     0.039 C 
HETATM   14  C   UNL     1      98.204  36.872 -26.143  1.00  0.00    -0.049 A 
HETATM   15  C   UNL     1      96.124  37.606 -27.142  1.00  0.00     0.011 A 
HETATM   16  C   UNL     1      98.183  35.750 -26.988  1.00  0.00     0.044 A 
HETATM   17  C   UNL     1      96.114  36.491 -27.979  1.00  0.00     0.037 A 
HETATM   18  C   UNL     1      97.142  35.565 -27.891  1.00  0.00     0.066 A 
ENDROOT
BRANCH   5  19
HETATM   19  O   UNL     1      95.756  42.009 -20.970  1.00  0.00    -0.395 OA
HETATM   20  H   UNL     1      95.006  42.216 -21.552  1.00  0.00     0.210 HD
ENDBRANCH   5  19
BRANCH  18  21
HETATM   21  O   UNL     1      97.165  34.455 -28.679  1.00  0.00    -0.361 OA
HETATM   22  H   UNL     1      96.289  34.350 -29.088  1.00  0.00     0.217 HD
ENDBRANCH  18  21
TORSDOF 2
ENDMDL
MODEL 9
REMARK VINA RESULT:      -6.7     37.793     38.786
REMARK  2 active torsions:
REMARK  status: ('A' for Active; 'I' for Inactive)
REMARK    1  A    between atoms: O_19  and  C_5 
REMARK    2  A    between atoms: O_21  and  C_18 
ROOT
HETATM    1  C   UNL     1      76.220  17.364 -36.219  1.00  0.00    -0.014 C 
HETATM    2  C   UNL     1      75.909  17.885 -37.637  1.00  0.00     0.001 C 
HETATM    3  C   UNL     1      75.704  16.751 -38.645  1.00  0.00    -0.001 C 
HETATM    4  C   UNL     1      74.519  15.854 -38.168  1.00  0.00     0.023 C 
HETATM    5  C   UNL     1      76.425  18.706 -35.492  1.00  0.00     0.126 C 
HETATM    6  C   UNL     1      75.009  16.561 -35.733  1.00  0.00     0.013 C 
HETATM    7  C   UNL     1      77.014  18.911 -37.876  1.00  0.00     0.008 C 
HETATM    8  C   UNL     1      74.681  15.409 -36.692  1.00  0.00     0.010 C 
HETATM    9  C   UNL     1      77.236  19.551 -36.491  1.00  0.00     0.033 C 
HETATM   10  C   UNL     1      75.378  17.269 -40.050  1.00  0.00     0.010 C 
HETATM   11  C   UNL     1      77.496  16.490 -36.116  1.00  0.00     0.018 C 
HETATM   12  C   UNL     1      74.287  14.709 -39.149  1.00  0.00    -0.047 A 
HETATM   13  C   UNL     1      75.269  16.116 -41.050  1.00  0.00     0.039 C 
HETATM   14  C   UNL     1      74.624  14.860 -40.510  1.00  0.00    -0.049 A 
HETATM   15  C   UNL     1      73.683  13.503 -38.739  1.00  0.00     0.011 A 
HETATM   16  C   UNL     1      74.406  13.797 -41.403  1.00  0.00     0.044 A 
HETATM   17  C   UNL     1      73.467  12.456 -39.634  1.00  0.00     0.037 A 
HETATM   18  C   UNL     1      73.838  12.608 -40.961  1.00  0.00     0.066 A 
ENDROOT
BRANCH   5  19
HETATM   19  O   UNL     1      77.102  18.585 -34.255  1.00  0.00    -0.395 OA
HETATM   20  H   UNL     1      77.741  17.858 -34.341  1.00  0.00     0.210 HD
ENDBRANCH   5  19
BRANCH  18  21
HETATM   21  O   UNL     1      73.658  11.606 -41.866  1.00  0.00    -0.361 OA
HETATM   22  H   UNL     1      72.765  11.688 -42.241  1.00  0.00     0.217 HD
ENDBRANCH  18  21
TORSDOF 2
ENDMDL
MODEL 10
REMARK VINA RESULT:      -6.5     19.719     23.412
REMARK  2 active torsions:
REMARK  status: ('A' for Active; 'I' for Inactive)
REMARK    1  A    between atoms: O_19  and  C_5 
REMARK    2  A    between atoms: O_21  and  C_18 
ROOT
HETATM    1  C   UNL     1      76.298  57.997   0.138  1.00  0.00    -0.014 C 
HETATM    2  C   UNL     1      75.409  57.024   0.938  1.00  0.00     0.001 C 
HETATM    3  C   UNL     1      75.824  55.562   0.748  1.00  0.00    -0.001 C 
HETATM    4  C   UNL     1      77.303  55.388   1.213  1.00  0.00     0.023 C 
HETATM    5  C   UNL     1      75.601  59.326   0.486  1.00  0.00     0.126 C 
HETATM    6  C   UNL     1      77.729  57.878   0.669  1.00  0.00     0.013 C 
HETATM    7  C   UNL     1      73.994  57.458   0.558  1.00  0.00     0.008 C 
HETATM    8  C   UNL     1      78.245  56.436   0.566  1.00  0.00     0.010 C 
HETATM    9  C   UNL     1      74.100  58.989   0.415  1.00  0.00     0.033 C 
HETATM   10  C   UNL     1      74.950  54.596   1.557  1.00  0.00     0.010 C 
HETATM   11  C   UNL     1      76.293  57.767  -1.395  1.00  0.00     0.018 C 
HETATM   12  C   UNL     1      77.753  53.942   1.035  1.00  0.00    -0.047 A 
HETATM   13  C   UNL     1      75.332  53.143   1.275  1.00  0.00     0.039 C 
HETATM   14  C   UNL     1      76.812  52.893   1.092  1.00  0.00    -0.049 A 
HETATM   15  C   UNL     1      79.113  53.612   0.869  1.00  0.00     0.011 A 
HETATM   16  C   UNL     1      77.240  51.565   0.927  1.00  0.00     0.044 A 
HETATM   17  C   UNL     1      79.528  52.290   0.709  1.00  0.00     0.037 A 
HETATM   18  C   UNL     1      78.585  51.274   0.732  1.00  0.00     0.066 A 
ENDROOT
BRANCH   5  19
HETATM   19  O   UNL     1      75.931  60.387  -0.390  1.00  0.00    -0.395 OA
HETATM   20  H   UNL     1      76.492  60.022  -1.094  1.00  0.00     0.210 HD
ENDBRANCH   5  19
BRANCH  18  21
HETATM   21  O   UNL     1      78.943  49.971   0.566  1.00  0.00    -0.361 OA
HETATM   22  H   UNL     1      78.730  49.488   1.382  1.00  0.00     0.217 HD
ENDBRANCH  18  21
TORSDOF 2
ENDMDL
MODEL 11
REMARK VINA RESULT:      -6.5     25.339     26.954
REMARK  2 active torsions:
REMARK  status: ('A' for Active; 'I' for Inactive)
REMARK    1  A    between atoms: O_19  and  C_5 
REMARK    2  A    between atoms: O_21  and  C_18 
ROOT
HETATM    1  C   UNL     1      97.637  58.721 -24.900  1.00  0.00    -0.014 C 
HETATM    2  C   UNL     1      96.207  59.151 -25.284  1.00  0.00     0.001 C 
HETATM    3  C   UNL     1      95.324  59.410 -24.060  1.00  0.00    -0.001 C 
HETATM    4  C   UNL     1      95.972  60.535 -23.194  1.00  0.00     0.023 C 
HETATM    5  C   UNL     1      98.222  58.488 -26.306  1.00  0.00     0.126 C 
HETATM    6  C   UNL     1      98.288  59.873 -24.129  1.00  0.00     0.013 C 
HETATM    7  C   UNL     1      95.789  58.089 -26.300  1.00  0.00     0.008 C 
HETATM    8  C   UNL     1      97.465  60.251 -22.890  1.00  0.00     0.010 C 
HETATM    9  C   UNL     1      97.089  57.774 -27.066  1.00  0.00     0.033 C 
HETATM   10  C   UNL     1      93.908  59.853 -24.443  1.00  0.00     0.010 C 
HETATM   11  C   UNL     1      97.718  57.423 -24.057  1.00  0.00     0.018 C 
HETATM   12  C   UNL     1      95.121  60.818 -21.961  1.00  0.00    -0.047 A 
HETATM   13  C   UNL     1      93.029  60.015 -23.202  1.00  0.00     0.039 C 
HETATM   14  C   UNL     1      93.729  60.590 -21.991  1.00  0.00    -0.049 A 
HETATM   15  C   UNL     1      95.684  61.363 -20.790  1.00  0.00     0.011 A 
HETATM   16  C   UNL     1      92.956  60.855 -20.848  1.00  0.00     0.044 A 
HETATM   17  C   UNL     1      94.907  61.626 -19.663  1.00  0.00     0.037 A 
HETATM   18  C   UNL     1      93.546  61.362 -19.697  1.00  0.00     0.066 A 
ENDROOT
BRANCH   5  19
HETATM   19  O   UNL     1      99.407  57.716 -26.308  1.00  0.00    -0.395 OA
HETATM   20  H   UNL     1      99.966  58.036 -25.580  1.00  0.00     0.210 HD
ENDBRANCH   5  19
BRANCH  18  21
HETATM   21  O   UNL     1      92.753  61.590 -18.614  1.00  0.00    -0.361 OA
HETATM   22  H   UNL     1      93.319  61.654 -17.827  1.00  0.00     0.217 HD
ENDBRANCH  18  21
TORSDOF 2
ENDMDL
MODEL 12
REMARK VINA RESULT:      -6.5     46.639     49.033
REMARK  2 active torsions:
REMARK  status: ('A' for Active; 'I' for Inactive)
REMARK    1  A    between atoms: O_19  and  C_5 
REMARK    2  A    between atoms: O_21  and  C_18 
ROOT
HETATM    1  C   UNL     1     101.390   0.812 -40.908  1.00  0.00    -0.014 C 
HETATM    2  C   UNL     1     100.775   1.855 -39.953  1.00  0.00     0.001 C 
HETATM    3  C   UNL     1     100.682   1.346 -38.511  1.00  0.00    -0.001 C 
HETATM    4  C   UNL     1     102.113   0.984 -38.006  1.00  0.00     0.023 C 
HETATM    5  C   UNL     1     101.286   1.587 -42.235  1.00  0.00     0.126 C 
HETATM    6  C   UNL     1     102.824   0.536 -40.449  1.00  0.00     0.013 C 
HETATM    7  C   UNL     1      99.502   2.282 -40.682  1.00  0.00     0.008 C 
HETATM    8  C   UNL     1     102.861   0.052 -38.993  1.00  0.00     0.010 C 
HETATM    9  C   UNL     1      99.898   2.250 -42.172  1.00  0.00     0.033 C 
HETATM   10  C   UNL     1     100.086   2.390 -37.560  1.00  0.00     0.010 C 
HETATM   11  C   UNL     1     100.608  -0.523 -40.997  1.00  0.00     0.018 C 
HETATM   12  C   UNL     1     102.059   0.468 -36.572  1.00  0.00    -0.047 A 
HETATM   13  C   UNL     1      99.924   1.819 -36.150  1.00  0.00     0.039 C 
HETATM   14  C   UNL     1     101.032   0.893 -35.703  1.00  0.00    -0.049 A 
HETATM   15  C   UNL     1     103.053  -0.391 -36.063  1.00  0.00     0.011 A 
HETATM   16  C   UNL     1     100.993   0.410 -34.384  1.00  0.00     0.044 A 
HETATM   17  C   UNL     1     103.008  -0.861 -34.751  1.00  0.00     0.037 A 
HETATM   18  C   UNL     1     101.971  -0.462 -33.921  1.00  0.00     0.066 A 
ENDROOT
BRANCH   5  19
HETATM   19  O   UNL     1     101.411   0.768 -43.382  1.00  0.00    -0.395 OA
HETATM   20  H   UNL     1     100.665   0.971 -43.970  1.00  0.00     0.210 HD
ENDBRANCH   5  19
BRANCH  18  21
HETATM   21  O   UNL     1     101.880  -0.907 -32.637  1.00  0.00    -0.361 OA
HETATM   22  H   UNL     1     102.602  -0.509 -32.122  1.00  0.00     0.217 HD
ENDBRANCH  18  21
TORSDOF 2
ENDMDL
MODEL 13
REMARK VINA RESULT:      -6.3     16.411     18.083
REMARK  2 active torsions:
REMARK  status: ('A' for Active; 'I' for Inactive)
REMARK    1  A    between atoms: O_19  and  C_5 
REMARK    2  A    between atoms: O_21  and  C_18 
ROOT
HETATM    1  C   UNL     1     103.147  50.017  -9.020  1.00  0.00    -0.014 C 
HETATM    2  C   UNL     1     102.138  48.981  -8.485  1.00  0.00     0.001 C 
HETATM    3  C   UNL     1     102.769  47.601  -8.279  1.00  0.00    -0.001 C 
HETATM    4  C   UNL     1     103.947  47.726  -7.265  1.00  0.00     0.023 C 
HETATM    5  C   UNL     1     102.213  51.233  -9.169  1.00  0.00     0.126 C 
HETATM    6  C   UNL     1     104.249  50.192  -7.971  1.00  0.00     0.013 C 
HETATM    7  C   UNL     1     100.952  49.131  -9.436  1.00  0.00     0.008 C 
HETATM    8  C   UNL     1     104.934  48.857  -7.652  1.00  0.00     0.010 C 
HETATM    9  C   UNL     1     100.920  50.639  -9.756  1.00  0.00     0.033 C 
HETATM   10  C   UNL     1     101.769  46.577  -7.731  1.00  0.00     0.010 C 
HETATM   11  C   UNL     1     103.785  49.653 -10.385  1.00  0.00     0.018 C 
HETATM   12  C   UNL     1     104.604  46.368  -7.038  1.00  0.00    -0.047 A 
HETATM   13  C   UNL     1     102.406  45.190  -7.624  1.00  0.00     0.039 C 
HETATM   14  C   UNL     1     103.854  45.183  -7.188  1.00  0.00    -0.049 A 
HETATM   15  C   UNL     1     105.945  46.262  -6.621  1.00  0.00     0.011 A 
HETATM   16  C   UNL     1     104.470  43.938  -6.976  1.00  0.00     0.044 A 
HETATM   17  C   UNL     1     106.547  45.022  -6.409  1.00  0.00     0.037 A 
HETATM   18  C   UNL     1     105.805  43.865  -6.596  1.00  0.00     0.066 A 
ENDROOT
BRANCH   5  19
HETATM   19  O   UNL     1     102.734  52.251 -10.001  1.00  0.00    -0.395 OA
HETATM   20  H   UNL     1     103.701  52.235  -9.913  1.00  0.00     0.210 HD
ENDBRANCH   5  19
BRANCH  18  21
HETATM   21  O   UNL     1     106.356  42.634  -6.415  1.00  0.00    -0.361 OA
HETATM   22  H   UNL     1     105.718  42.080  -5.934  1.00  0.00     0.217 HD
ENDBRANCH  18  21
TORSDOF 2
ENDMDL
MODEL 14
REMARK VINA RESULT:      -6.2     11.462     15.018
REMARK  2 active torsions:
REMARK  status: ('A' for Active; 'I' for Inactive)
REMARK    1  A    between atoms: O_19  and  C_5 
REMARK    2  A    between atoms: O_21  and  C_18 
ROOT
HETATM    1  C   UNL     1     103.484  33.454 -10.230  1.00  0.00    -0.014 C 
HETATM    2  C   UNL     1     102.495  32.378 -10.724  1.00  0.00     0.001 C 
HETATM    3  C   UNL     1     101.250  32.984 -11.379  1.00  0.00    -0.001 C 
HETATM    4  C   UNL     1     101.689  33.860 -12.593  1.00  0.00     0.023 C 
HETATM    5  C   UNL     1     104.552  32.546  -9.592  1.00  0.00     0.126 C 
HETATM    6  C   UNL     1     103.972  34.245 -11.446  1.00  0.00     0.013 C 
HETATM    7  C   UNL     1     102.336  31.470  -9.506  1.00  0.00     0.008 C 
HETATM    8  C   UNL     1     102.799  34.873 -12.212  1.00  0.00     0.010 C 
HETATM    9  C   UNL     1     103.735  31.467  -8.858  1.00  0.00     0.033 C 
HETATM   10  C   UNL     1     100.276  31.914 -11.885  1.00  0.00     0.010 C 
HETATM   11  C   UNL     1     102.903  34.431  -9.176  1.00  0.00     0.018 C 
HETATM   12  C   UNL     1     100.473  34.484 -13.269  1.00  0.00    -0.047 A 
HETATM   13  C   UNL     1      99.006  32.551 -12.450  1.00  0.00     0.039 C 
HETATM   14  C   UNL     1      99.220  33.839 -13.212  1.00  0.00    -0.049 A 
HETATM   15  C   UNL     1     100.577  35.678 -14.010  1.00  0.00     0.011 A 
HETATM   16  C   UNL     1      98.107  34.425 -13.839  1.00  0.00     0.044 A 
HETATM   17  C   UNL     1      99.468  36.249 -14.632  1.00  0.00     0.037 A 
HETATM   18  C   UNL     1      98.235  35.621 -14.536  1.00  0.00     0.066 A 
ENDROOT
BRANCH   5  19
HETATM   19  O   UNL     1     105.418  33.226  -8.704  1.00  0.00    -0.395 OA
HETATM   20  H   UNL     1     106.289  33.284  -9.130  1.00  0.00     0.210 HD
ENDBRANCH   5  19
BRANCH  18  21
HETATM   21  O   UNL     1      97.123  36.150 -15.116  1.00  0.00    -0.361 OA
HETATM   22  H   UNL     1      97.243  36.137 -16.080  1.00  0.00     0.217 HD
ENDBRANCH  18  21
TORSDOF 2
ENDMDL
MODEL 15
REMARK VINA RESULT:      -6.2      4.361      6.701
REMARK  2 active torsions:
REMARK  status: ('A' for Active; 'I' for Inactive)
REMARK    1  A    between atoms: O_19  and  C_5 
REMARK    2  A    between atoms: O_21  and  C_18 
ROOT
HETATM    1  C   UNL     1      79.949  40.723  -8.898  1.00  0.00    -0.014 C 
HETATM    2  C   UNL     1      80.520  40.364 -10.285  1.00  0.00     0.001 C 
HETATM    3  C   UNL     1      82.000  40.734 -10.423  1.00  0.00    -0.001 C 
HETATM    4  C   UNL     1      82.818  39.977  -9.331  1.00  0.00     0.023 C 
HETATM    5  C   UNL     1      78.484  40.295  -9.104  1.00  0.00     0.126 C 
HETATM    6  C   UNL     1      80.705  39.904  -7.847  1.00  0.00     0.013 C 
HETATM    7  C   UNL     1      79.500  40.973 -11.245  1.00  0.00     0.008 C 
HETATM    8  C   UNL     1      82.215  40.165  -7.915  1.00  0.00     0.010 C 
HETATM    9  C   UNL     1      78.150  40.783 -10.525  1.00  0.00     0.033 C 
HETATM   10  C   UNL     1      82.570  40.360 -11.796  1.00  0.00     0.010 C 
HETATM   11  C   UNL     1      80.029  42.229  -8.536  1.00  0.00     0.018 C 
HETATM   12  C   UNL     1      84.299  40.325  -9.436  1.00  0.00    -0.047 A 
HETATM   13  C   UNL     1      84.021  40.824 -11.933  1.00  0.00     0.039 C 
HETATM   14  C   UNL     1      84.855  40.699 -10.678  1.00  0.00    -0.049 A 
HETATM   15  C   UNL     1      85.156  40.228  -8.322  1.00  0.00     0.011 A 
HETATM   16  C   UNL     1      86.220  41.017 -10.761  1.00  0.00     0.044 A 
HETATM   17  C   UNL     1      86.512  40.542  -8.416  1.00  0.00     0.037 A 
HETATM   18  C   UNL     1      87.034  40.943  -9.636  1.00  0.00     0.066 A 
ENDROOT
BRANCH   5  19
HETATM   19  O   UNL     1      77.593  40.843  -8.151  1.00  0.00    -0.395 OA
HETATM   20  H   UNL     1      77.257  41.680  -8.511  1.00  0.00     0.210 HD
ENDBRANCH   5  19
BRANCH  18  21
HETATM   21  O   UNL     1      88.348  41.272  -9.771  1.00  0.00    -0.361 OA
HETATM   22  H   UNL     1      88.881  40.469  -9.647  1.00  0.00     0.217 HD
ENDBRANCH  18  21
TORSDOF 2
ENDMDL
MODEL 16
REMARK VINA RESULT:      -6.1     18.844     21.979
REMARK  2 active torsions:
REMARK  status: ('A' for Active; 'I' for Inactive)
REMARK    1  A    between atoms: O_19  and  C_5 
REMARK    2  A    between atoms: O_21  and  C_18 
ROOT
HETATM    1  C   UNL     1      75.999  55.829   1.490  1.00  0.00    -0.014 C 
HETATM    2  C   UNL     1      77.279  55.616   0.657  1.00  0.00     0.001 C 
HETATM    3  C   UNL     1      78.000  54.313   1.014  1.00  0.00    -0.001 C 
HETATM    4  C   UNL     1      77.034  53.113   0.767  1.00  0.00     0.023 C 
HETATM    5  C   UNL     1      75.567  57.205   0.948  1.00  0.00     0.126 C 
HETATM    6  C   UNL     1      75.027  54.690   1.166  1.00  0.00     0.013 C 
HETATM    7  C   UNL     1      78.014  56.946   0.809  1.00  0.00     0.008 C 
HETATM    8  C   UNL     1      75.658  53.320   1.451  1.00  0.00     0.010 C 
HETATM    9  C   UNL     1      76.884  57.995   0.844  1.00  0.00     0.033 C 
HETATM   10  C   UNL     1      79.263  54.094   0.174  1.00  0.00     0.010 C 
HETATM   11  C   UNL     1      76.227  55.896   3.021  1.00  0.00     0.018 C 
HETATM   12  C   UNL     1      77.717  51.795   1.117  1.00  0.00    -0.047 A 
HETATM   13  C   UNL     1      80.005  52.832   0.618  1.00  0.00     0.039 C 
HETATM   14  C   UNL     1      79.119  51.674   1.016  1.00  0.00    -0.049 A 
HETATM   15  C   UNL     1      76.973  50.658   1.489  1.00  0.00     0.011 A 
HETATM   16  C   UNL     1      79.737  50.455   1.341  1.00  0.00     0.044 A 
HETATM   17  C   UNL     1      77.595  49.451   1.806  1.00  0.00     0.037 A 
HETATM   18  C   UNL     1      78.977  49.360   1.737  1.00  0.00     0.066 A 
ENDROOT
BRANCH   5  19
HETATM   19  O   UNL     1      74.633  57.873   1.775  1.00  0.00    -0.395 OA
HETATM   20  H   UNL     1      74.322  58.656   1.292  1.00  0.00     0.210 HD
ENDBRANCH   5  19
BRANCH  18  21
HETATM   21  O   UNL     1      79.628  48.206   2.051  1.00  0.00    -0.361 OA
HETATM   22  H   UNL     1      80.378  48.423   2.630  1.00  0.00     0.217 HD
ENDBRANCH  18  21
TORSDOF 2
ENDMDL
MODEL 17
REMARK VINA RESULT:      -6.1     11.549     14.894
REMARK  2 active torsions:
REMARK  status: ('A' for Active; 'I' for Inactive)
REMARK    1  A    between atoms: O_19  and  C_5 
REMARK    2  A    between atoms: O_21  and  C_18 
ROOT
HETATM    1  C   UNL     1      86.956  39.522   1.201  1.00  0.00    -0.014 C 
HETATM    2  C   UNL     1      87.333  39.442   2.694  1.00  0.00     0.001 C 
HETATM    3  C   UNL     1      87.156  40.782   3.415  1.00  0.00    -0.001 C 
HETATM    4  C   UNL     1      85.667  41.232   3.295  1.00  0.00     0.023 C 
HETATM    5  C   UNL     1      87.294  38.081   0.774  1.00  0.00     0.126 C 
HETATM    6  C   UNL     1      85.470  39.877   1.105  1.00  0.00     0.013 C 
HETATM    7  C   UNL     1      88.708  38.779   2.667  1.00  0.00     0.008 C 
HETATM    8  C   UNL     1      85.162  41.194   1.831  1.00  0.00     0.010 C 
HETATM    9  C   UNL     1      88.618  37.778   1.498  1.00  0.00     0.033 C 
HETATM   10  C   UNL     1      87.515  40.697   4.903  1.00  0.00     0.010 C 
HETATM   11  C   UNL     1      87.786  40.541   0.378  1.00  0.00     0.018 C 
HETATM   12  C   UNL     1      85.454  42.568   4.000  1.00  0.00    -0.047 A 
HETATM   13  C   UNL     1      87.415  42.069   5.571  1.00  0.00     0.039 C 
HETATM   14  C   UNL     1      86.273  42.935   5.089  1.00  0.00    -0.049 A 
HETATM   15  C   UNL     1      84.410  43.436   3.627  1.00  0.00     0.011 A 
HETATM   16  C   UNL     1      86.066  44.168   5.729  1.00  0.00     0.044 A 
HETATM   17  C   UNL     1      84.210  44.656   4.272  1.00  0.00     0.037 A 
HETATM   18  C   UNL     1      85.047  45.018   5.316  1.00  0.00     0.066 A 
ENDROOT
BRANCH   5  19
HETATM   19  O   UNL     1      87.426  37.920  -0.626  1.00  0.00    -0.395 OA
HETATM   20  H   UNL     1      87.359  38.801  -1.030  1.00  0.00     0.210 HD
ENDBRANCH   5  19
BRANCH  18  21
HETATM   21  O   UNL     1      84.898  46.206   5.965  1.00  0.00    -0.361 OA
HETATM   22  H   UNL     1      85.101  46.924   5.341  1.00  0.00     0.217 HD
ENDBRANCH  18  21
TORSDOF 2
ENDMDL
MODEL 18
REMARK VINA RESULT:      -6.1     34.332     35.310
REMARK  2 active torsions:
REMARK  status: ('A' for Active; 'I' for Inactive)
REMARK    1  A    between atoms: O_19  and  C_5 
REMARK    2  A    between atoms: O_21  and  C_18 
ROOT
HETATM    1  C   UNL     1      76.136  19.771 -36.281  1.00  0.00    -0.014 C 
HETATM    2  C   UNL     1      76.178  19.340 -37.761  1.00  0.00     0.001 C 
HETATM    3  C   UNL     1      77.534  19.622 -38.415  1.00  0.00    -0.001 C 
HETATM    4  C   UNL     1      78.645  18.853 -37.635  1.00  0.00     0.023 C 
HETATM    5  C   UNL     1      74.672  19.419 -35.953  1.00  0.00     0.126 C 
HETATM    6  C   UNL     1      77.171  18.941 -35.516  1.00  0.00     0.013 C 
HETATM    7  C   UNL     1      74.917  19.977 -38.342  1.00  0.00     0.008 C 
HETATM    8  C   UNL     1      78.576  19.115 -36.109  1.00  0.00     0.010 C 
HETATM    9  C   UNL     1      73.891  19.884 -37.196  1.00  0.00     0.033 C 
HETATM   10  C   UNL     1      77.581  19.178 -39.881  1.00  0.00     0.010 C 
HETATM   11  C   UNL     1      76.399  21.279 -36.039  1.00  0.00     0.018 C 
HETATM   12  C   UNL     1      80.013  19.114 -38.257  1.00  0.00    -0.047 A 
HETATM   13  C   UNL     1      78.914  19.556 -40.527  1.00  0.00     0.039 C 
HETATM   14  C   UNL     1      80.123  19.420 -39.629  1.00  0.00    -0.049 A 
HETATM   15  C   UNL     1      81.197  19.002 -37.500  1.00  0.00     0.011 A 
HETATM   16  C   UNL     1      81.389  19.659 -40.190  1.00  0.00     0.044 A 
HETATM   17  C   UNL     1      82.449  19.236 -38.067  1.00  0.00     0.037 A 
HETATM   18  C   UNL     1      82.536  19.572 -39.409  1.00  0.00     0.066 A 
ENDROOT
BRANCH   5  19
HETATM   19  O   UNL     1      74.188  20.043 -34.780  1.00  0.00    -0.395 OA
HETATM   20  H   UNL     1      74.808  20.754 -34.548  1.00  0.00     0.210 HD
ENDBRANCH   5  19
BRANCH  18  21
HETATM   21  O   UNL     1      83.736  19.823 -40.000  1.00  0.00    -0.361 OA
HETATM   22  H   UNL     1      83.611  19.819 -40.964  1.00  0.00     0.217 HD
ENDBRANCH  18  21
TORSDOF 2
ENDMDL
MODEL 19
REMARK VINA RESULT:      -6.0     23.557     26.899
REMARK  2 active torsions:
REMARK  status: ('A' for Active; 'I' for Inactive)
REMARK    1  A    between atoms: O_19  and  C_5 
REMARK    2  A    between atoms: O_21  and  C_18 
ROOT
HETATM    1  C   UNL     1      96.455  15.530 -13.070  1.00  0.00    -0.014 C 
HETATM    2  C   UNL     1      96.890  15.475 -14.548  1.00  0.00     0.001 C 
HETATM    3  C   UNL     1      97.112  14.042 -15.041  1.00  0.00    -0.001 C 
HETATM    4  C   UNL     1      95.785  13.237 -14.877  1.00  0.00     0.023 C 
HETATM    5  C   UNL     1      96.381  17.057 -12.880  1.00  0.00     0.126 C 
HETATM    6  C   UNL     1      95.108  14.813 -12.945  1.00  0.00     0.013 C 
HETATM    7  C   UNL     1      98.044  16.475 -14.605  1.00  0.00     0.008 C 
HETATM    8  C   UNL     1      95.196  13.366 -13.449  1.00  0.00     0.010 C 
HETATM    9  C   UNL     1      97.624  17.584 -13.619  1.00  0.00     0.033 C 
HETATM   10  C   UNL     1      97.528  13.988 -16.515  1.00  0.00     0.010 C 
HETATM   11  C   UNL     1      97.467  14.908 -12.074  1.00  0.00     0.018 C 
HETATM   12  C   UNL     1      95.969  11.800 -15.355  1.00  0.00    -0.047 A 
HETATM   13  C   UNL     1      97.827  12.552 -16.949  1.00  0.00     0.039 C 
HETATM   14  C   UNL     1      96.920  11.500 -16.352  1.00  0.00    -0.049 A 
HETATM   15  C   UNL     1      95.163  10.755 -14.864  1.00  0.00     0.011 A 
HETATM   16  C   UNL     1      97.080  10.173 -16.784  1.00  0.00     0.044 A 
HETATM   17  C   UNL     1      95.326   9.441 -15.302  1.00  0.00     0.037 A 
HETATM   18  C   UNL     1      96.292   9.157 -16.255  1.00  0.00     0.066 A 
ENDROOT
BRANCH   5  19
HETATM   19  O   UNL     1      96.380  17.461 -11.525  1.00  0.00    -0.395 OA
HETATM   20  H   UNL     1      95.862  18.281 -11.464  1.00  0.00     0.210 HD
ENDBRANCH   5  19
BRANCH  18  21
HETATM   21  O   UNL     1      96.495   7.887 -16.701  1.00  0.00    -0.361 OA
HETATM   22  H   UNL     1      95.630   7.453 -16.798  1.00  0.00     0.217 HD
ENDBRANCH  18  21
TORSDOF 2
ENDMDL
MODEL 20
REMARK VINA RESULT:      -6.0      3.838      6.325
REMARK  2 active torsions:
REMARK  status: ('A' for Active; 'I' for Inactive)
REMARK    1  A    between atoms: O_19  and  C_5 
REMARK    2  A    between atoms: O_21  and  C_18 
ROOT
HETATM    1  C   UNL     1      80.489  40.257 -10.596  1.00  0.00    -0.014 C 
HETATM    2  C   UNL     1      81.377  41.279  -9.859  1.00  0.00     0.001 C 
HETATM    3  C   UNL     1      82.580  40.622  -9.173  1.00  0.00    -0.001 C 
HETATM    4  C   UNL     1      83.441  39.890 -10.249  1.00  0.00     0.023 C 
HETATM    5  C   UNL     1      79.380  41.199 -11.102  1.00  0.00     0.126 C 
HETATM    6  C   UNL     1      81.326  39.614 -11.705  1.00  0.00     0.013 C 
HETATM    7  C   UNL     1      80.373  42.067  -9.020  1.00  0.00     0.008 C 
HETATM    8  C   UNL     1      82.589  38.950 -11.139  1.00  0.00     0.010 C 
HETATM    9  C   UNL     1      79.118  42.139  -9.912  1.00  0.00     0.033 C 
HETATM   10  C   UNL     1      83.472  41.641  -8.455  1.00  0.00     0.010 C 
HETATM   11  C   UNL     1      79.889  39.150  -9.692  1.00  0.00     0.018 C 
HETATM   12  C   UNL     1      84.648  39.220  -9.601  1.00  0.00    -0.047 A 
HETATM   13  C   UNL     1      84.609  40.944  -7.708  1.00  0.00     0.039 C 
HETATM   14  C   UNL     1      85.201  39.746  -8.415  1.00  0.00    -0.049 A 
HETATM   15  C   UNL     1      85.273  38.104 -10.193  1.00  0.00     0.011 A 
HETATM   16  C   UNL     1      86.313  39.119  -7.828  1.00  0.00     0.044 A 
HETATM   17  C   UNL     1      86.379  37.492  -9.605  1.00  0.00     0.037 A 
HETATM   18  C   UNL     1      86.888  38.000  -8.419  1.00  0.00     0.066 A 
ENDROOT
BRANCH   5  19
HETATM   19  O   UNL     1      78.199  40.527 -11.495  1.00  0.00    -0.395 OA
HETATM   20  H   UNL     1      78.190  40.494 -12.466  1.00  0.00     0.210 HD
ENDBRANCH   5  19
BRANCH  18  21
HETATM   21  O   UNL     1      87.957  37.425  -7.803  1.00  0.00    -0.361 OA
HETATM   22  H   UNL     1      88.477  36.948  -8.471  1.00  0.00     0.217 HD
ENDBRANCH  18  21
TORSDOF 2
ENDMDL
