MODEL 1
REMARK VINA RESULT:      -8.4      0.000      0.000
REMARK  2 active torsions:
REMARK  status: ('A' for Active; 'I' for Inactive)
REMARK    1  A    between atoms: O_19  and  C_5 
REMARK    2  A    between atoms: O_21  and  C_18 
ROOT
HETATM    1  C   UNL     1     105.936  13.084 -29.238  1.00  0.00    -0.014 C 
HETATM    2  C   UNL     1     107.102  13.585 -30.114  1.00  0.00     0.001 C 
HETATM    3  C   UNL     1     107.863  14.746 -29.467  1.00  0.00    -0.001 C 
HETATM    4  C   UNL     1     108.431  14.279 -28.091  1.00  0.00     0.023 C 
HETATM    5  C   UNL     1     105.363  11.999 -30.170  1.00  0.00     0.126 C 
HETATM    6  C   UNL     1     106.521  12.547 -27.929  1.00  0.00     0.013 C 
HETATM    7  C   UNL     1     106.448  13.784 -31.479  1.00  0.00     0.008 C 
HETATM    8  C   UNL     1     107.344  13.620 -27.203  1.00  0.00     0.010 C 
HETATM    9  C   UNL     1     105.414  12.644 -31.567  1.00  0.00     0.033 C 
HETATM   10  C   UNL     1     109.033  15.232 -30.330  1.00  0.00     0.010 C 
HETATM   11  C   UNL     1     104.858  14.153 -28.923  1.00  0.00     0.018 C 
HETATM   12  C   UNL     1     109.194  15.413 -27.414  1.00  0.00    -0.047 A 
HETATM   13  C   UNL     1     109.714  16.447 -29.698  1.00  0.00     0.039 C 
HETATM   14  C   UNL     1     109.814  16.414 -28.190  1.00  0.00    -0.049 A 
HETATM   15  C   UNL     1     109.349  15.460 -26.014  1.00  0.00     0.011 A 
HETATM   16  C   UNL     1     110.513  17.454 -27.554  1.00  0.00     0.044 A 
HETATM   17  C   UNL     1     110.048  16.494 -25.393  1.00  0.00     0.037 A 
HETATM   18  C   UNL     1     110.621  17.490 -26.169  1.00  0.00     0.066 A 
ENDROOT
BRANCH   5  19
HETATM   19  O   UNL     1     104.047  11.601 -29.837  1.00  0.00    -0.395 OA
HETATM   20  H   UNL     1     104.092  10.688 -29.509  1.00  0.00     0.210 HD
ENDBRANCH   5  19
BRANCH  18  21
HETATM   21  O   UNL     1     111.300  18.526 -25.604  1.00  0.00    -0.361 OA
HETATM   22  H   UNL     1     111.925  18.878 -26.261  1.00  0.00     0.217 HD
ENDBRANCH  18  21
TORSDOF 2
ENDMDL
MODEL 2
REMARK VINA RESULT:      -7.8      1.934      3.865
REMARK  2 active torsions:
REMARK  status: ('A' for Active; 'I' for Inactive)
REMARK    1  A    between atoms: O_19  and  C_5 
REMARK    2  A    between atoms: O_21  and  C_18 
ROOT
HETATM    1  C   UNL     1     104.815  11.087 -29.166  1.00  0.00    -0.014 C 
HETATM    2  C   UNL     1     105.066  11.987 -27.940  1.00  0.00     0.001 C 
HETATM    3  C   UNL     1     106.326  12.845 -28.092  1.00  0.00    -0.001 C 
HETATM    4  C   UNL     1     106.178  13.747 -29.356  1.00  0.00     0.023 C 
HETATM    5  C   UNL     1     103.558  10.340 -28.683  1.00  0.00     0.126 C 
HETATM    6  C   UNL     1     104.583  11.992 -30.380  1.00  0.00     0.013 C 
HETATM    7  C   UNL     1     104.958  11.013 -26.769  1.00  0.00     0.008 C 
HETATM    8  C   UNL     1     105.774  12.932 -30.611  1.00  0.00     0.010 C 
HETATM    9  C   UNL     1     103.856  10.026 -27.205  1.00  0.00     0.033 C 
HETATM   10  C   UNL     1     106.565  13.752 -26.879  1.00  0.00     0.010 C 
HETATM   11  C   UNL     1     105.956  10.085 -29.478  1.00  0.00     0.018 C 
HETATM   12  C   UNL     1     107.418  14.615 -29.542  1.00  0.00    -0.047 A 
HETATM   13  C   UNL     1     107.876  14.527 -27.023  1.00  0.00     0.039 C 
HETATM   14  C   UNL     1     108.194  14.994 -28.426  1.00  0.00    -0.049 A 
HETATM   15  C   UNL     1     107.787  15.106 -30.810  1.00  0.00     0.011 A 
HETATM   16  C   UNL     1     109.334  15.793 -28.610  1.00  0.00     0.044 A 
HETATM   17  C   UNL     1     108.919  15.902 -30.982  1.00  0.00     0.037 A 
HETATM   18  C   UNL     1     109.691  16.235 -29.879  1.00  0.00     0.066 A 
ENDROOT
BRANCH   5  19
HETATM   19  O   UNL     1     103.283   9.159 -29.412  1.00  0.00    -0.395 OA
HETATM   20  H   UNL     1     103.278   9.391 -30.355  1.00  0.00     0.210 HD
ENDBRANCH   5  19
BRANCH  18  21
HETATM   21  O   UNL     1     110.811  16.998 -30.003  1.00  0.00    -0.361 OA
HETATM   22  H   UNL     1     111.344  16.894 -29.197  1.00  0.00     0.217 HD
ENDBRANCH  18  21
TORSDOF 2
ENDMDL
MODEL 3
REMARK VINA RESULT:      -7.3      3.120      4.826
REMARK  2 active torsions:
REMARK  status: ('A' for Active; 'I' for Inactive)
REMARK    1  A    between atoms: O_19  and  C_5 
REMARK    2  A    between atoms: O_21  and  C_18 
ROOT
HETATM    1  C   UNL     1     104.185  11.255 -27.231  1.00  0.00    -0.014 C 
HETATM    2  C   UNL     1     104.531  10.711 -28.632  1.00  0.00     0.001 C 
HETATM    3  C   UNL     1     105.043  11.804 -29.575  1.00  0.00    -0.001 C 
HETATM    4  C   UNL     1     106.321  12.452 -28.957  1.00  0.00     0.023 C 
HETATM    5  C   UNL     1     103.662   9.963 -26.576  1.00  0.00     0.126 C 
HETATM    6  C   UNL     1     105.469  11.805 -26.605  1.00  0.00     0.013 C 
HETATM    7  C   UNL     1     103.283   9.917 -29.011  1.00  0.00     0.008 C 
HETATM    8  C   UNL     1     106.100  12.892 -27.487  1.00  0.00     0.010 C 
HETATM    9  C   UNL     1     102.810   9.306 -27.677  1.00  0.00     0.033 C 
HETATM   10  C   UNL     1     105.403  11.259 -30.961  1.00  0.00     0.010 C 
HETATM   11  C   UNL     1     103.090  12.353 -27.216  1.00  0.00     0.018 C 
HETATM   12  C   UNL     1     106.858  13.550 -29.869  1.00  0.00    -0.047 A 
HETATM   13  C   UNL     1     105.824  12.388 -31.903  1.00  0.00     0.039 C 
HETATM   14  C   UNL     1     106.635  13.490 -31.260  1.00  0.00    -0.049 A 
HETATM   15  C   UNL     1     107.633  14.612 -29.361  1.00  0.00     0.011 A 
HETATM   16  C   UNL     1     107.135  14.508 -32.089  1.00  0.00     0.044 A 
HETATM   17  C   UNL     1     108.128  15.615 -30.193  1.00  0.00     0.037 A 
HETATM   18  C   UNL     1     107.868  15.560 -31.554  1.00  0.00     0.066 A 
ENDROOT
BRANCH   5  19
HETATM   19  O   UNL     1     102.901  10.188 -25.405  1.00  0.00    -0.395 OA
HETATM   20  H   UNL     1     102.034  10.531 -25.679  1.00  0.00     0.210 HD
ENDBRANCH   5  19
BRANCH  18  21
HETATM   21  O   UNL     1     108.320  16.526 -32.401  1.00  0.00    -0.361 OA
HETATM   22  H   UNL     1     108.758  16.094 -33.153  1.00  0.00     0.217 HD
ENDBRANCH  18  21
TORSDOF 2
ENDMDL
MODEL 4
REMARK VINA RESULT:      -7.2      2.754      6.122
REMARK  2 active torsions:
REMARK  status: ('A' for Active; 'I' for Inactive)
REMARK    1  A    between atoms: O_19  and  C_5 
REMARK    2  A    between atoms: O_21  and  C_18 
ROOT
HETATM    1  C   UNL     1     107.731  15.032 -31.201  1.00  0.00    -0.014 C 
HETATM    2  C   UNL     1     108.213  14.592 -29.804  1.00  0.00     0.001 C 
HETATM    3  C   UNL     1     107.061  14.139 -28.903  1.00  0.00    -0.001 C 
HETATM    4  C   UNL     1     106.324  12.942 -29.581  1.00  0.00     0.023 C 
HETATM    5  C   UNL     1     109.077  15.469 -31.810  1.00  0.00     0.126 C 
HETATM    6  C   UNL     1     107.092  13.820 -31.886  1.00  0.00     0.013 C 
HETATM    7  C   UNL     1     109.099  15.755 -29.362  1.00  0.00     0.008 C 
HETATM    8  C   UNL     1     105.938  13.251 -31.050  1.00  0.00     0.010 C 
HETATM    9  C   UNL     1     109.777  16.223 -30.666  1.00  0.00     0.033 C 
HETATM   10  C   UNL     1     107.543  13.685 -27.520  1.00  0.00     0.010 C 
HETATM   11  C   UNL     1     106.728  16.213 -31.196  1.00  0.00     0.018 C 
HETATM   12  C   UNL     1     105.165  12.465 -28.711  1.00  0.00    -0.047 A 
HETATM   13  C   UNL     1     106.362  13.326 -26.617  1.00  0.00     0.039 C 
HETATM   14  C   UNL     1     105.212  12.633 -27.312  1.00  0.00    -0.049 A 
HETATM   15  C   UNL     1     104.055  11.800 -29.269  1.00  0.00     0.011 A 
HETATM   16  C   UNL     1     104.137  12.190 -26.522  1.00  0.00     0.044 A 
HETATM   17  C   UNL     1     102.996  11.360 -28.476  1.00  0.00     0.037 A 
HETATM   18  C   UNL     1     103.041  11.566 -27.106  1.00  0.00     0.066 A 
ENDROOT
BRANCH   5  19
HETATM   19  O   UNL     1     108.942  16.287 -32.957  1.00  0.00    -0.395 OA
HETATM   20  H   UNL     1     108.076  16.725 -32.904  1.00  0.00     0.210 HD
ENDBRANCH   5  19
BRANCH  18  21
HETATM   21  O   UNL     1     102.022  11.166 -26.295  1.00  0.00    -0.361 OA
HETATM   22  H   UNL     1     101.444  10.570 -26.801  1.00  0.00     0.217 HD
ENDBRANCH  18  21
TORSDOF 2
ENDMDL
MODEL 5
REMARK VINA RESULT:      -7.0      3.609      5.502
REMARK  2 active torsions:
REMARK  status: ('A' for Active; 'I' for Inactive)
REMARK    1  A    between atoms: O_19  and  C_5 
REMARK    2  A    between atoms: O_21  and  C_18 
ROOT
HETATM    1  C   UNL     1     102.874  10.304 -26.294  1.00  0.00    -0.014 C 
HETATM    2  C   UNL     1     103.334   9.872 -27.701  1.00  0.00     0.001 C 
HETATM    3  C   UNL     1     104.094  10.982 -28.434  1.00  0.00    -0.001 C 
HETATM    4  C   UNL     1     105.348  11.380 -27.596  1.00  0.00     0.023 C 
HETATM    5  C   UNL     1     102.117   9.031 -25.870  1.00  0.00     0.126 C 
HETATM    6  C   UNL     1     104.122  10.604 -25.458  1.00  0.00     0.013 C 
HETATM    7  C   UNL     1     102.060   9.300 -28.320  1.00  0.00     0.008 C 
HETATM    8  C   UNL     1     104.990  11.684 -26.118  1.00  0.00     0.010 C 
HETATM    9  C   UNL     1     101.345   8.618 -27.137  1.00  0.00     0.033 C 
HETATM   10  C   UNL     1     104.566  10.546 -29.826  1.00  0.00     0.010 C 
HETATM   11  C   UNL     1     101.928  11.531 -26.271  1.00  0.00     0.018 C 
HETATM   12  C   UNL     1     106.130  12.487 -28.295  1.00  0.00    -0.047 A 
HETATM   13  C   UNL     1     105.240  11.703 -30.565  1.00  0.00     0.039 C 
HETATM   14  C   UNL     1     106.087  12.609 -29.699  1.00  0.00    -0.049 A 
HETATM   15  C   UNL     1     106.953  13.373 -27.571  1.00  0.00     0.011 A 
HETATM   16  C   UNL     1     106.811  13.634 -30.331  1.00  0.00     0.044 A 
HETATM   17  C   UNL     1     107.671  14.384 -28.208  1.00  0.00     0.037 A 
HETATM   18  C   UNL     1     107.589  14.513 -29.586  1.00  0.00     0.066 A 
ENDROOT
BRANCH   5  19
HETATM   19  O   UNL     1     101.241   9.229 -24.777  1.00  0.00    -0.395 OA
HETATM   20  H   UNL     1     100.787  10.076 -24.915  1.00  0.00     0.210 HD
ENDBRANCH   5  19
BRANCH  18  21
HETATM   21  O   UNL     1     108.262  15.494 -30.248  1.00  0.00    -0.361 OA
HETATM   22  H   UNL     1     109.215  15.317 -30.174  1.00  0.00     0.217 HD
ENDBRANCH  18  21
TORSDOF 2
ENDMDL
MODEL 6
REMARK VINA RESULT:      -6.9      2.896      3.960
REMARK  2 active torsions:
REMARK  status: ('A' for Active; 'I' for Inactive)
REMARK    1  A    between atoms: O_19  and  C_5 
REMARK    2  A    between atoms: O_21  and  C_18 
ROOT
HETATM    1  C   UNL     1     104.016  10.693 -27.961  1.00  0.00    -0.014 C 
HETATM    2  C   UNL     1     105.430  11.204 -28.303  1.00  0.00     0.001 C 
HETATM    3  C   UNL     1     105.777  12.503 -27.569  1.00  0.00    -0.001 C 
HETATM    4  C   UNL     1     105.689  12.258 -26.031  1.00  0.00     0.023 C 
HETATM    5  C   UNL     1     103.962   9.456 -28.876  1.00  0.00     0.126 C 
HETATM    6  C   UNL     1     103.975  10.374 -26.464  1.00  0.00     0.013 C 
HETATM    7  C   UNL     1     105.447  11.176 -29.830  1.00  0.00     0.008 C 
HETATM    8  C   UNL     1     104.346  11.601 -25.620  1.00  0.00     0.010 C 
HETATM    9  C   UNL     1     104.606   9.935 -30.190  1.00  0.00     0.033 C 
HETATM   10  C   UNL     1     107.190  13.000 -27.896  1.00  0.00     0.010 C 
HETATM   11  C   UNL     1     102.871  11.678 -28.311  1.00  0.00     0.018 C 
HETATM   12  C   UNL     1     106.025  13.534 -25.266  1.00  0.00    -0.047 A 
HETATM   13  C   UNL     1     107.470  14.343 -27.219  1.00  0.00     0.039 C 
HETATM   14  C   UNL     1     106.887  14.495 -25.832  1.00  0.00    -0.049 A 
HETATM   15  C   UNL     1     105.536  13.759 -23.964  1.00  0.00     0.011 A 
HETATM   16  C   UNL     1     107.189  15.666 -25.118  1.00  0.00     0.044 A 
HETATM   17  C   UNL     1     105.845  14.923 -23.261  1.00  0.00     0.037 A 
HETATM   18  C   UNL     1     106.665  15.875 -23.847  1.00  0.00     0.066 A 
ENDROOT
BRANCH   5  19
HETATM   19  O   UNL     1     102.652   8.969 -29.096  1.00  0.00    -0.395 OA
HETATM   20  H   UNL     1     102.042   9.721 -29.014  1.00  0.00     0.210 HD
ENDBRANCH   5  19
BRANCH  18  21
HETATM   21  O   UNL     1     106.980  17.032 -23.203  1.00  0.00    -0.361 OA
HETATM   22  H   UNL     1     106.575  17.772 -23.685  1.00  0.00     0.217 HD
ENDBRANCH  18  21
TORSDOF 2
ENDMDL
MODEL 7
REMARK VINA RESULT:      -6.9      4.624      9.395
REMARK  2 active torsions:
REMARK  status: ('A' for Active; 'I' for Inactive)
REMARK    1  A    between atoms: O_19  and  C_5 
REMARK    2  A    between atoms: O_21  and  C_18 
ROOT
HETATM    1  C   UNL     1     105.014  11.985 -28.329  1.00  0.00    -0.014 C 
HETATM    2  C   UNL     1     104.528  11.261 -27.058  1.00  0.00     0.001 C 
HETATM    3  C   UNL     1     103.307  10.374 -27.319  1.00  0.00    -0.001 C 
HETATM    4  C   UNL     1     103.673   9.308 -28.397  1.00  0.00     0.023 C 
HETATM    5  C   UNL     1     106.170  12.808 -27.730  1.00  0.00     0.126 C 
HETATM    6  C   UNL     1     105.453  10.924 -29.342  1.00  0.00     0.013 C 
HETATM    7  C   UNL     1     104.432  12.389 -26.033  1.00  0.00     0.008 C 
HETATM    8  C   UNL     1     104.313   9.946 -29.657  1.00  0.00     0.010 C 
HETATM    9  C   UNL     1     105.608  13.319 -26.391  1.00  0.00     0.033 C 
HETATM   10  C   UNL     1     102.836   9.641 -26.058  1.00  0.00     0.010 C 
HETATM   11  C   UNL     1     103.964  12.921 -28.981  1.00  0.00     0.018 C 
HETATM   12  C   UNL     1     102.476   8.407 -28.687  1.00  0.00    -0.047 A 
HETATM   13  C   UNL     1     101.563   8.838 -26.333  1.00  0.00     0.039 C 
HETATM   14  C   UNL     1     101.504   8.177 -27.692  1.00  0.00    -0.049 A 
HETATM   15  C   UNL     1     102.341   7.742 -29.921  1.00  0.00     0.011 A 
HETATM   16  C   UNL     1     100.406   7.346 -27.971  1.00  0.00     0.044 A 
HETATM   17  C   UNL     1     101.250   6.915 -30.187  1.00  0.00     0.037 A 
HETATM   18  C   UNL     1     100.283   6.729 -29.211  1.00  0.00     0.066 A 
ENDROOT
BRANCH   5  19
HETATM   19  O   UNL     1     106.590  13.880 -28.552  1.00  0.00    -0.395 OA
HETATM   20  H   UNL     1     105.900  14.025 -29.221  1.00  0.00     0.210 HD
ENDBRANCH   5  19
BRANCH  18  21
HETATM   21  O   UNL     1      99.194   5.942 -29.432  1.00  0.00    -0.361 OA
HETATM   22  H   UNL     1      98.403   6.424 -29.139  1.00  0.00     0.217 HD
ENDBRANCH  18  21
TORSDOF 2
ENDMDL
MODEL 8
REMARK VINA RESULT:      -6.8      3.285      5.548
REMARK  2 active torsions:
REMARK  status: ('A' for Active; 'I' for Inactive)
REMARK    1  A    between atoms: O_19  and  C_5 
REMARK    2  A    between atoms: O_21  and  C_18 
ROOT
HETATM    1  C   UNL     1     103.742  11.355 -26.879  1.00  0.00    -0.014 C 
HETATM    2  C   UNL     1     104.538  12.642 -26.584  1.00  0.00     0.001 C 
HETATM    3  C   UNL     1     105.592  12.938 -27.655  1.00  0.00    -0.001 C 
HETATM    4  C   UNL     1     104.885  13.089 -29.037  1.00  0.00     0.023 C 
HETATM    5  C   UNL     1     102.844  11.316 -25.628  1.00  0.00     0.126 C 
HETATM    6  C   UNL     1     102.984  11.556 -28.194  1.00  0.00     0.013 C 
HETATM    7  C   UNL     1     104.974  12.453 -25.132  1.00  0.00     0.008 C 
HETATM    8  C   UNL     1     103.941  11.898 -29.344  1.00  0.00     0.010 C 
HETATM    9  C   UNL     1     103.788  11.716 -24.479  1.00  0.00     0.033 C 
HETATM   10  C   UNL     1     106.370  14.227 -27.370  1.00  0.00     0.010 C 
HETATM   11  C   UNL     1     104.603  10.069 -26.969  1.00  0.00     0.018 C 
HETATM   12  C   UNL     1     105.906  13.380 -30.132  1.00  0.00    -0.047 A 
HETATM   13  C   UNL     1     107.473  14.444 -28.407  1.00  0.00     0.039 C 
HETATM   14  C   UNL     1     107.112  14.043 -29.819  1.00  0.00    -0.049 A 
HETATM   15  C   UNL     1     105.653  13.053 -31.478  1.00  0.00     0.011 A 
HETATM   16  C   UNL     1     108.045  14.306 -30.837  1.00  0.00     0.044 A 
HETATM   17  C   UNL     1     106.583  13.321 -32.481  1.00  0.00     0.037 A 
HETATM   18  C   UNL     1     107.779  13.940 -32.151  1.00  0.00     0.066 A 
ENDROOT
BRANCH   5  19
HETATM   19  O   UNL     1     102.256  10.051 -25.390  1.00  0.00    -0.395 OA
HETATM   20  H   UNL     1     102.969   9.391 -25.392  1.00  0.00     0.210 HD
ENDBRANCH   5  19
BRANCH  18  21
HETATM   21  O   UNL     1     108.723  14.209 -33.096  1.00  0.00    -0.361 OA
HETATM   22  H   UNL     1     108.783  15.173 -33.204  1.00  0.00     0.217 HD
ENDBRANCH  18  21
TORSDOF 2
ENDMDL
MODEL 9
REMARK VINA RESULT:      -6.8      2.807      6.534
REMARK  2 active torsions:
REMARK  status: ('A' for Active; 'I' for Inactive)
REMARK    1  A    between atoms: O_19  and  C_5 
REMARK    2  A    between atoms: O_21  and  C_18 
ROOT
HETATM    1  C   UNL     1     106.224  14.179 -24.936  1.00  0.00    -0.014 C 
HETATM    2  C   UNL     1     105.835  12.745 -25.346  1.00  0.00     0.001 C 
HETATM    3  C   UNL     1     105.461  12.641 -26.828  1.00  0.00    -0.001 C 
HETATM    4  C   UNL     1     106.677  13.099 -27.693  1.00  0.00     0.023 C 
HETATM    5  C   UNL     1     106.472  13.958 -23.432  1.00  0.00     0.126 C 
HETATM    6  C   UNL     1     107.471  14.578 -25.730  1.00  0.00     0.013 C 
HETATM    7  C   UNL     1     104.811  12.348 -24.285  1.00  0.00     0.008 C 
HETATM    8  C   UNL     1     107.228  14.475 -27.241  1.00  0.00     0.010 C 
HETATM    9  C   UNL     1     105.325  13.026 -22.999  1.00  0.00     0.033 C 
HETATM   10  C   UNL     1     105.091  11.211 -27.239  1.00  0.00     0.010 C 
HETATM   11  C   UNL     1     105.112  15.238 -25.152  1.00  0.00     0.018 C 
HETATM   12  C   UNL     1     106.340  13.012 -29.178  1.00  0.00    -0.047 A 
HETATM   13  C   UNL     1     104.638  11.159 -28.699  1.00  0.00     0.039 C 
HETATM   14  C   UNL     1     105.393  12.073 -29.637  1.00  0.00    -0.049 A 
HETATM   15  C   UNL     1     106.999  13.817 -30.128  1.00  0.00     0.011 A 
HETATM   16  C   UNL     1     105.092  12.003 -31.008  1.00  0.00     0.044 A 
HETATM   17  C   UNL     1     106.696  13.737 -31.486  1.00  0.00     0.037 A 
HETATM   18  C   UNL     1     105.736  12.833 -31.917  1.00  0.00     0.066 A 
ENDROOT
BRANCH   5  19
HETATM   19  O   UNL     1     106.475  15.153 -22.675  1.00  0.00    -0.395 OA
HETATM   20  H   UNL     1     105.586  15.540 -22.734  1.00  0.00     0.210 HD
ENDBRANCH   5  19
BRANCH  18  21
HETATM   21  O   UNL     1     105.398  12.732 -33.232  1.00  0.00    -0.361 OA
HETATM   22  H   UNL     1     104.539  12.281 -33.295  1.00  0.00     0.217 HD
ENDBRANCH  18  21
TORSDOF 2
ENDMDL
MODEL 10
REMARK VINA RESULT:      -6.6     16.530     18.869
REMARK  2 active torsions:
REMARK  status: ('A' for Active; 'I' for Inactive)
REMARK    1  A    between atoms: O_19  and  C_5 
REMARK    2  A    between atoms: O_21  and  C_18 
ROOT
HETATM    1  C   UNL     1      97.500  15.188 -15.024  1.00  0.00    -0.014 C 
HETATM    2  C   UNL     1      96.494  14.553 -14.042  1.00  0.00     0.001 C 
HETATM    3  C   UNL     1      95.902  13.245 -14.575  1.00  0.00    -0.001 C 
HETATM    4  C   UNL     1      97.059  12.231 -14.836  1.00  0.00     0.023 C 
HETATM    5  C   UNL     1      97.847  16.469 -14.243  1.00  0.00     0.126 C 
HETATM    6  C   UNL     1      98.671  14.217 -15.198  1.00  0.00     0.013 C 
HETATM    7  C   UNL     1      95.563  15.715 -13.702  1.00  0.00     0.008 C 
HETATM    8  C   UNL     1      98.192  12.847 -15.696  1.00  0.00     0.010 C 
HETATM    9  C   UNL     1      96.493  16.945 -13.687  1.00  0.00     0.033 C 
HETATM   10  C   UNL     1      94.916  12.606 -13.591  1.00  0.00     0.010 C 
HETATM   11  C   UNL     1      96.910  15.543 -16.413  1.00  0.00     0.018 C 
HETATM   12  C   UNL     1      96.506  10.915 -15.372  1.00  0.00    -0.047 A 
HETATM   13  C   UNL     1      94.277  11.352 -14.190  1.00  0.00     0.039 C 
HETATM   14  C   UNL     1      95.199  10.504 -15.036  1.00  0.00    -0.049 A 
HETATM   15  C   UNL     1      97.296  10.054 -16.160  1.00  0.00     0.011 A 
HETATM   16  C   UNL     1      94.702   9.290 -15.537  1.00  0.00     0.044 A 
HETATM   17  C   UNL     1      96.794   8.849 -16.649  1.00  0.00     0.037 A 
HETATM   18  C   UNL     1      95.494   8.477 -16.339  1.00  0.00     0.066 A 
ENDROOT
BRANCH   5  19
HETATM   19  O   UNL     1      98.456  17.470 -15.035  1.00  0.00    -0.395 OA
HETATM   20  H   UNL     1      97.754  17.911 -15.542  1.00  0.00     0.210 HD
ENDBRANCH   5  19
BRANCH  18  21
HETATM   21  O   UNL     1      94.959   7.316 -16.806  1.00  0.00    -0.361 OA
HETATM   22  H   UNL     1      95.683   6.690 -16.976  1.00  0.00     0.217 HD
ENDBRANCH  18  21
TORSDOF 2
ENDMDL
MODEL 11
REMARK VINA RESULT:      -6.6      2.043      6.406
REMARK  2 active torsions:
REMARK  status: ('A' for Active; 'I' for Inactive)
REMARK    1  A    between atoms: O_19  and  C_5 
REMARK    2  A    between atoms: O_21  and  C_18 
ROOT
HETATM    1  C   UNL     1     108.773  15.552 -29.524  1.00  0.00    -0.014 C 
HETATM    2  C   UNL     1     107.651  15.442 -30.576  1.00  0.00     0.001 C 
HETATM    3  C   UNL     1     107.117  14.014 -30.715  1.00  0.00    -0.001 C 
HETATM    4  C   UNL     1     106.561  13.541 -29.336  1.00  0.00     0.023 C 
HETATM    5  C   UNL     1     109.118  17.046 -29.671  1.00  0.00     0.126 C 
HETATM    6  C   UNL     1     108.186  15.171 -28.162  1.00  0.00     0.013 C 
HETATM    7  C   UNL     1     108.252  16.141 -31.794  1.00  0.00     0.008 C 
HETATM    8  C   UNL     1     107.581  13.761 -28.189  1.00  0.00     0.010 C 
HETATM    9  C   UNL     1     109.089  17.287 -31.191  1.00  0.00     0.033 C 
HETATM   10  C   UNL     1     105.990  13.909 -31.749  1.00  0.00     0.010 C 
HETATM   11  C   UNL     1     110.019  14.676 -29.813  1.00  0.00     0.018 C 
HETATM   12  C   UNL     1     106.022  12.118 -29.435  1.00  0.00    -0.047 A 
HETATM   13  C   UNL     1     105.542  12.458 -31.928  1.00  0.00     0.039 C 
HETATM   14  C   UNL     1     105.522  11.632 -30.662  1.00  0.00    -0.049 A 
HETATM   15  C   UNL     1     105.955  11.278 -28.306  1.00  0.00     0.011 A 
HETATM   16  C   UNL     1     105.029  10.319 -30.740  1.00  0.00     0.044 A 
HETATM   17  C   UNL     1     105.460   9.978 -28.394  1.00  0.00     0.037 A 
HETATM   18  C   UNL     1     105.006   9.504 -29.615  1.00  0.00     0.066 A 
ENDROOT
BRANCH   5  19
HETATM   19  O   UNL     1     110.373  17.396 -29.120  1.00  0.00    -0.395 OA
HETATM   20  H   UNL     1     110.826  16.572 -28.876  1.00  0.00     0.210 HD
ENDBRANCH   5  19
BRANCH  18  21
HETATM   21  O   UNL     1     104.527   8.236 -29.749  1.00  0.00    -0.361 OA
HETATM   22  H   UNL     1     104.827   7.712 -28.987  1.00  0.00     0.217 HD
ENDBRANCH  18  21
TORSDOF 2
ENDMDL
MODEL 12
REMARK VINA RESULT:      -6.6      3.665      7.439
REMARK  2 active torsions:
REMARK  status: ('A' for Active; 'I' for Inactive)
REMARK    1  A    between atoms: O_19  and  C_5 
REMARK    2  A    between atoms: O_21  and  C_18 
ROOT
HETATM    1  C   UNL     1     105.052  13.252 -24.426  1.00  0.00    -0.014 C 
HETATM    2  C   UNL     1     105.423  13.861 -25.794  1.00  0.00     0.001 C 
HETATM    3  C   UNL     1     105.523  12.803 -26.897  1.00  0.00    -0.001 C 
HETATM    4  C   UNL     1     104.151  12.072 -27.028  1.00  0.00     0.023 C 
HETATM    5  C   UNL     1     105.094  14.525 -23.560  1.00  0.00     0.126 C 
HETATM    6  C   UNL     1     103.664  12.617 -24.550  1.00  0.00     0.013 C 
HETATM    7  C   UNL     1     106.640  14.724 -25.468  1.00  0.00     0.008 C 
HETATM    8  C   UNL     1     103.631  11.559 -25.660  1.00  0.00     0.010 C 
HETATM    9  C   UNL     1     106.340  15.277 -24.061  1.00  0.00     0.033 C 
HETATM   10  C   UNL     1     105.875  13.412 -28.260  1.00  0.00     0.010 C 
HETATM   11  C   UNL     1     106.058  12.200 -23.893  1.00  0.00     0.018 C 
HETATM   12  C   UNL     1     104.214  11.007 -28.117  1.00  0.00    -0.047 A 
HETATM   13  C   UNL     1     106.056  12.322 -29.317  1.00  0.00     0.039 C 
HETATM   14  C   UNL     1     105.102  11.154 -29.204  1.00  0.00    -0.049 A 
HETATM   15  C   UNL     1     103.358   9.888 -28.101  1.00  0.00     0.011 A 
HETATM   16  C   UNL     1     105.151  10.165 -30.201  1.00  0.00     0.044 A 
HETATM   17  C   UNL     1     103.411   8.915 -29.097  1.00  0.00     0.037 A 
HETATM   18  C   UNL     1     104.315   9.057 -30.139  1.00  0.00     0.066 A 
ENDROOT
BRANCH   5  19
HETATM   19  O   UNL     1     105.176  14.264 -22.171  1.00  0.00    -0.395 OA
HETATM   20  H   UNL     1     106.075  13.947 -21.985  1.00  0.00     0.210 HD
ENDBRANCH   5  19
BRANCH  18  21
HETATM   21  O   UNL     1     104.411   8.123 -31.126  1.00  0.00    -0.361 OA
HETATM   22  H   UNL     1     105.097   8.409 -31.753  1.00  0.00     0.217 HD
ENDBRANCH  18  21
TORSDOF 2
ENDMDL
MODEL 13
REMARK VINA RESULT:      -6.5     17.262     18.669
REMARK  2 active torsions:
REMARK  status: ('A' for Active; 'I' for Inactive)
REMARK    1  A    between atoms: O_19  and  C_5 
REMARK    2  A    between atoms: O_21  and  C_18 
ROOT
HETATM    1  C   UNL     1     101.317   0.907 -41.046  1.00  0.00    -0.014 C 
HETATM    2  C   UNL     1     100.732   1.956 -40.080  1.00  0.00     0.001 C 
HETATM    3  C   UNL     1     100.648   1.443 -38.639  1.00  0.00    -0.001 C 
HETATM    4  C   UNL     1     102.079   1.054 -38.153  1.00  0.00     0.023 C 
HETATM    5  C   UNL     1     101.210   1.688 -42.369  1.00  0.00     0.126 C 
HETATM    6  C   UNL     1     102.752   0.604 -40.606  1.00  0.00     0.013 C 
HETATM    7  C   UNL     1      99.458   2.408 -40.791  1.00  0.00     0.008 C 
HETATM    8  C   UNL     1     102.800   0.114 -39.152  1.00  0.00     0.010 C 
HETATM    9  C   UNL     1      99.834   2.374 -42.286  1.00  0.00     0.033 C 
HETATM   10  C   UNL     1     100.083   2.493 -37.676  1.00  0.00     0.010 C 
HETATM   11  C   UNL     1     100.512  -0.415 -41.130  1.00  0.00     0.018 C 
HETATM   12  C   UNL     1     102.034   0.534 -36.720  1.00  0.00    -0.047 A 
HETATM   13  C   UNL     1      99.928   1.920 -36.267  1.00  0.00     0.039 C 
HETATM   14  C   UNL     1     101.026   0.973 -35.836  1.00  0.00    -0.049 A 
HETATM   15  C   UNL     1     103.020  -0.343 -36.226  1.00  0.00     0.011 A 
HETATM   16  C   UNL     1     100.995   0.486 -34.519  1.00  0.00     0.044 A 
HETATM   17  C   UNL     1     102.983  -0.817 -34.916  1.00  0.00     0.037 A 
HETATM   18  C   UNL     1     101.964  -0.404 -34.071  1.00  0.00     0.066 A 
ENDROOT
BRANCH   5  19
HETATM   19  O   UNL     1     101.307   0.872 -43.520  1.00  0.00    -0.395 OA
HETATM   20  H   UNL     1     100.462   0.933 -43.995  1.00  0.00     0.210 HD
ENDBRANCH   5  19
BRANCH  18  21
HETATM   21  O   UNL     1     101.881  -0.853 -32.788  1.00  0.00    -0.361 OA
HETATM   22  H   UNL     1     100.952  -0.810 -32.507  1.00  0.00     0.217 HD
ENDBRANCH  18  21
TORSDOF 2
ENDMDL
MODEL 14
REMARK VINA RESULT:      -6.4      2.173      7.165
REMARK  2 active torsions:
REMARK  status: ('A' for Active; 'I' for Inactive)
REMARK    1  A    between atoms: O_19  and  C_5 
REMARK    2  A    between atoms: O_21  and  C_18 
ROOT
HETATM    1  C   UNL     1     110.649  16.777 -23.240  1.00  0.00    -0.014 C 
HETATM    2  C   UNL     1     110.750  17.397 -24.648  1.00  0.00     0.001 C 
HETATM    3  C   UNL     1     110.221  16.462 -25.740  1.00  0.00    -0.001 C 
HETATM    4  C   UNL     1     108.726  16.128 -25.443  1.00  0.00     0.023 C 
HETATM    5  C   UNL     1     111.296  17.905 -22.416  1.00  0.00     0.126 C 
HETATM    6  C   UNL     1     109.168  16.539 -22.932  1.00  0.00     0.013 C 
HETATM    7  C   UNL     1     112.198  17.879 -24.710  1.00  0.00     0.008 C 
HETATM    8  C   UNL     1     108.514  15.638 -23.988  1.00  0.00     0.010 C 
HETATM    9  C   UNL     1     112.494  18.353 -23.273  1.00  0.00     0.033 C 
HETATM   10  C   UNL     1     110.305  17.087 -27.137  1.00  0.00     0.010 C 
HETATM   11  C   UNL     1     111.434  15.453 -23.059  1.00  0.00     0.018 C 
HETATM   12  C   UNL     1     108.165  15.193 -26.510  1.00  0.00    -0.047 A 
HETATM   13  C   UNL     1     109.855  16.095 -28.210  1.00  0.00     0.039 C 
HETATM   14  C   UNL     1     108.694  15.209 -27.817  1.00  0.00    -0.049 A 
HETATM   15  C   UNL     1     107.077  14.339 -26.239  1.00  0.00     0.011 A 
HETATM   16  C   UNL     1     108.169  14.343 -28.791  1.00  0.00     0.044 A 
HETATM   17  C   UNL     1     106.560  13.486 -27.213  1.00  0.00     0.037 A 
HETATM   18  C   UNL     1     107.116  13.488 -28.484  1.00  0.00     0.066 A 
ENDROOT
BRANCH   5  19
HETATM   19  O   UNL     1     111.711  17.500 -21.126  1.00  0.00    -0.395 OA
HETATM   20  H   UNL     1     110.984  17.690 -20.510  1.00  0.00     0.210 HD
ENDBRANCH   5  19
BRANCH  18  21
HETATM   21  O   UNL     1     106.652  12.662 -29.461  1.00  0.00    -0.361 OA
HETATM   22  H   UNL     1     107.257  11.905 -29.536  1.00  0.00     0.217 HD
ENDBRANCH  18  21
TORSDOF 2
ENDMDL
MODEL 15
REMARK VINA RESULT:      -6.3     17.178     18.909
REMARK  2 active torsions:
REMARK  status: ('A' for Active; 'I' for Inactive)
REMARK    1  A    between atoms: O_19  and  C_5 
REMARK    2  A    between atoms: O_21  and  C_18 
ROOT
HETATM    1  C   UNL     1     102.476  -0.652 -35.912  1.00  0.00    -0.014 C 
HETATM    2  C   UNL     1     101.100   0.043 -35.866  1.00  0.00     0.001 C 
HETATM    3  C   UNL     1     100.890   1.003 -37.041  1.00  0.00    -0.001 C 
HETATM    4  C   UNL     1     101.007   0.206 -38.377  1.00  0.00     0.023 C 
HETATM    5  C   UNL     1     102.394  -1.469 -34.609  1.00  0.00     0.126 C 
HETATM    6  C   UNL     1     102.537  -1.500 -37.186  1.00  0.00     0.013 C 
HETATM    7  C   UNL     1     101.032   0.578 -34.438  1.00  0.00     0.008 C 
HETATM    8  C   UNL     1     102.301  -0.645 -38.438  1.00  0.00     0.010 C 
HETATM    9  C   UNL     1     101.751  -0.499 -33.601  1.00  0.00     0.033 C 
HETATM   10  C   UNL     1      99.516   1.681 -37.004  1.00  0.00     0.010 C 
HETATM   11  C   UNL     1     103.689   0.312 -35.873  1.00  0.00     0.018 C 
HETATM   12  C   UNL     1     100.806   1.133 -39.572  1.00  0.00    -0.047 A 
HETATM   13  C   UNL     1      99.374   2.698 -38.137  1.00  0.00     0.039 C 
HETATM   14  C   UNL     1     100.012   2.292 -39.447  1.00  0.00    -0.049 A 
HETATM   15  C   UNL     1     101.354   0.831 -40.834  1.00  0.00     0.011 A 
HETATM   16  C   UNL     1      99.836   3.137 -40.555  1.00  0.00     0.044 A 
HETATM   17  C   UNL     1     101.170   1.675 -41.929  1.00  0.00     0.037 A 
HETATM   18  C   UNL     1     100.416   2.829 -41.779  1.00  0.00     0.066 A 
ENDROOT
BRANCH   5  19
HETATM   19  O   UNL     1     103.649  -1.930 -34.147  1.00  0.00    -0.395 OA
HETATM   20  H   UNL     1     103.540  -2.856 -33.876  1.00  0.00     0.210 HD
ENDBRANCH   5  19
BRANCH  18  21
HETATM   21  O   UNL     1     100.222   3.688 -42.817  1.00  0.00    -0.361 OA
HETATM   22  H   UNL     1     100.367   4.595 -42.497  1.00  0.00     0.217 HD
ENDBRANCH  18  21
TORSDOF 2
ENDMDL
MODEL 16
REMARK VINA RESULT:      -6.2     15.256     18.009
REMARK  2 active torsions:
REMARK  status: ('A' for Active; 'I' for Inactive)
REMARK    1  A    between atoms: O_19  and  C_5 
REMARK    2  A    between atoms: O_21  and  C_18 
ROOT
HETATM    1  C   UNL     1      96.157  11.516 -43.442  1.00  0.00    -0.014 C 
HETATM    2  C   UNL     1      95.742  10.590 -42.281  1.00  0.00     0.001 C 
HETATM    3  C   UNL     1      96.858   9.622 -41.877  1.00  0.00    -0.001 C 
HETATM    4  C   UNL     1      98.112  10.443 -41.442  1.00  0.00     0.023 C 
HETATM    5  C   UNL     1      94.840  12.290 -43.636  1.00  0.00     0.126 C 
HETATM    6  C   UNL     1      97.331  12.377 -42.966  1.00  0.00     0.013 C 
HETATM    7  C   UNL     1      94.398  10.034 -42.747  1.00  0.00     0.008 C 
HETATM    8  C   UNL     1      98.506  11.509 -42.496  1.00  0.00     0.010 C 
HETATM    9  C   UNL     1      93.750  11.210 -43.504  1.00  0.00     0.033 C 
HETATM   10  C   UNL     1      96.451   8.713 -40.711  1.00  0.00     0.010 C 
HETATM   11  C   UNL     1      96.551  10.780 -44.748  1.00  0.00     0.018 C 
HETATM   12  C   UNL     1      99.248   9.510 -41.035  1.00  0.00    -0.047 A 
HETATM   13  C   UNL     1      97.552   7.701 -40.394  1.00  0.00     0.039 C 
HETATM   14  C   UNL     1      98.964   8.229 -40.519  1.00  0.00    -0.049 A 
HETATM   15  C   UNL     1     100.594   9.918 -41.108  1.00  0.00     0.011 A 
HETATM   16  C   UNL     1     100.019   7.379 -40.148  1.00  0.00     0.044 A 
HETATM   17  C   UNL     1     101.634   9.069 -40.734  1.00  0.00     0.037 A 
HETATM   18  C   UNL     1     101.339   7.798 -40.263  1.00  0.00     0.066 A 
ENDROOT
BRANCH   5  19
HETATM   19  O   UNL     1      94.751  12.958 -44.879  1.00  0.00    -0.395 OA
HETATM   20  H   UNL     1      94.381  12.332 -45.523  1.00  0.00     0.210 HD
ENDBRANCH   5  19
BRANCH  18  21
HETATM   21  O   UNL     1     102.324   6.931 -39.899  1.00  0.00    -0.361 OA
HETATM   22  H   UNL     1     102.131   6.064 -40.295  1.00  0.00     0.217 HD
ENDBRANCH  18  21
TORSDOF 2
ENDMDL
MODEL 17
REMARK VINA RESULT:      -6.1     13.835     17.240
REMARK  2 active torsions:
REMARK  status: ('A' for Active; 'I' for Inactive)
REMARK    1  A    between atoms: O_19  and  C_5 
REMARK    2  A    between atoms: O_21  and  C_18 
ROOT
HETATM    1  C   UNL     1     100.045   1.762 -40.520  1.00  0.00    -0.014 C 
HETATM    2  C   UNL     1      99.666   2.402 -39.169  1.00  0.00     0.001 C 
HETATM    3  C   UNL     1     100.447   3.690 -38.892  1.00  0.00    -0.001 C 
HETATM    4  C   UNL     1     100.159   4.715 -40.032  1.00  0.00     0.023 C 
HETATM    5  C   UNL     1      99.160   0.503 -40.465  1.00  0.00     0.126 C 
HETATM    6  C   UNL     1      99.673   2.747 -41.632  1.00  0.00     0.013 C 
HETATM    7  C   UNL     1      99.773   1.233 -38.192  1.00  0.00     0.008 C 
HETATM    8  C   UNL     1     100.372   4.099 -41.438  1.00  0.00     0.010 C 
HETATM    9  C   UNL     1      99.293   0.018 -39.010  1.00  0.00     0.033 C 
HETATM   10  C   UNL     1     100.056   4.334 -37.557  1.00  0.00     0.010 C 
HETATM   11  C   UNL     1     101.539   1.370 -40.653  1.00  0.00     0.018 C 
HETATM   12  C   UNL     1     100.925   6.012 -39.791  1.00  0.00    -0.047 A 
HETATM   13  C   UNL     1     100.917   5.565 -37.269  1.00  0.00     0.039 C 
HETATM   14  C   UNL     1     101.252   6.410 -38.477  1.00  0.00    -0.049 A 
HETATM   15  C   UNL     1     101.272   6.868 -40.854  1.00  0.00     0.011 A 
HETATM   16  C   UNL     1     101.958   7.606 -38.268  1.00  0.00     0.044 A 
HETATM   17  C   UNL     1     101.969   8.056 -40.636  1.00  0.00     0.037 A 
HETATM   18  C   UNL     1     102.315   8.414 -39.342  1.00  0.00     0.066 A 
ENDROOT
BRANCH   5  19
HETATM   19  O   UNL     1      99.549  -0.505 -41.378  1.00  0.00    -0.395 OA
HETATM   20  H   UNL     1     100.519  -0.559 -41.360  1.00  0.00     0.210 HD
ENDBRANCH   5  19
BRANCH  18  21
HETATM   21  O   UNL     1     103.007   9.557 -39.084  1.00  0.00    -0.361 OA
HETATM   22  H   UNL     1     103.029   9.693 -38.122  1.00  0.00     0.217 HD
ENDBRANCH  18  21
TORSDOF 2
ENDMDL
MODEL 18
REMARK VINA RESULT:      -6.0     17.282     19.116
REMARK  2 active torsions:
REMARK  status: ('A' for Active; 'I' for Inactive)
REMARK    1  A    between atoms: O_19  and  C_5 
REMARK    2  A    between atoms: O_21  and  C_18 
ROOT
HETATM    1  C   UNL     1      99.885   0.619 -35.512  1.00  0.00    -0.014 C 
HETATM    2  C   UNL     1     101.258   0.113 -35.997  1.00  0.00     0.001 C 
HETATM    3  C   UNL     1     101.349   0.039 -37.524  1.00  0.00    -0.001 C 
HETATM    4  C   UNL     1     101.098   1.459 -38.118  1.00  0.00     0.023 C 
HETATM    5  C   UNL     1     100.098   0.519 -33.989  1.00  0.00     0.126 C 
HETATM    6  C   UNL     1      99.695   2.047 -36.030  1.00  0.00     0.013 C 
HETATM    7  C   UNL     1     101.471  -1.153 -35.169  1.00  0.00     0.008 C 
HETATM    8  C   UNL     1      99.804   2.105 -37.560  1.00  0.00     0.010 C 
HETATM    9  C   UNL     1     100.840  -0.817 -33.804  1.00  0.00     0.033 C 
HETATM   10  C   UNL     1     102.720  -0.448 -38.005  1.00  0.00     0.010 C 
HETATM   11  C   UNL     1      98.682  -0.255 -35.950  1.00  0.00     0.018 C 
HETATM   12  C   UNL     1     101.177   1.423 -39.641  1.00  0.00    -0.047 A 
HETATM   13  C   UNL     1     102.747  -0.597 -39.527  1.00  0.00     0.039 C 
HETATM   14  C   UNL     1     101.980   0.461 -40.288  1.00  0.00    -0.049 A 
HETATM   15  C   UNL     1     100.504   2.374 -40.433  1.00  0.00     0.011 A 
HETATM   16  C   UNL     1     102.044   0.438 -41.691  1.00  0.00     0.044 A 
HETATM   17  C   UNL     1     100.577   2.346 -41.825  1.00  0.00     0.037 A 
HETATM   18  C   UNL     1     101.343   1.370 -42.447  1.00  0.00     0.066 A 
ENDROOT
BRANCH   5  19
HETATM   19  O   UNL     1      98.895   0.546 -33.245  1.00  0.00    -0.395 OA
HETATM   20  H   UNL     1      98.158   0.546 -33.878  1.00  0.00     0.210 HD
ENDBRANCH   5  19
BRANCH  18  21
HETATM   21  O   UNL     1     101.431   1.297 -43.803  1.00  0.00    -0.361 OA
HETATM   22  H   UNL     1     101.508   0.361 -44.055  1.00  0.00     0.217 HD
ENDBRANCH  18  21
TORSDOF 2
ENDMDL
MODEL 19
REMARK VINA RESULT:      -6.0      6.813      8.871
REMARK  2 active torsions:
REMARK  status: ('A' for Active; 'I' for Inactive)
REMARK    1  A    between atoms: O_19  and  C_5 
REMARK    2  A    between atoms: O_21  and  C_18 
ROOT
HETATM    1  C   UNL     1     100.121   8.839 -25.922  1.00  0.00    -0.014 C 
HETATM    2  C   UNL     1     100.427   8.745 -24.414  1.00  0.00     0.001 C 
HETATM    3  C   UNL     1     101.815   9.289 -24.062  1.00  0.00    -0.001 C 
HETATM    4  C   UNL     1     101.901  10.784 -24.500  1.00  0.00     0.023 C 
HETATM    5  C   UNL     1      98.730   8.178 -25.944  1.00  0.00     0.126 C 
HETATM    6  C   UNL     1     100.122  10.319 -26.314  1.00  0.00     0.013 C 
HETATM    7  C   UNL     1     100.083   7.294 -24.083  1.00  0.00     0.008 C 
HETATM    8  C   UNL     1     101.461  10.987 -25.972  1.00  0.00     0.010 C 
HETATM    9  C   UNL     1      98.871   6.983 -24.983  1.00  0.00     0.033 C 
HETATM   10  C   UNL     1     102.111   9.210 -22.560  1.00  0.00     0.010 C 
HETATM   11  C   UNL     1     101.106   8.062 -26.832  1.00  0.00     0.018 C 
HETATM   12  C   UNL     1     103.274  11.359 -24.169  1.00  0.00    -0.047 A 
HETATM   13  C   UNL     1     103.535   9.676 -22.256  1.00  0.00     0.039 C 
HETATM   14  C   UNL     1     104.020  10.840 -23.090  1.00  0.00    -0.049 A 
HETATM   15  C   UNL     1     103.804  12.451 -24.884  1.00  0.00     0.011 A 
HETATM   16  C   UNL     1     105.284  11.379 -22.795  1.00  0.00     0.044 A 
HETATM   17  C   UNL     1     105.057  12.982 -24.581  1.00  0.00     0.037 A 
HETATM   18  C   UNL     1     105.794  12.435 -23.541  1.00  0.00     0.066 A 
ENDROOT
BRANCH   5  19
HETATM   19  O   UNL     1      98.322   7.755 -27.231  1.00  0.00    -0.395 OA
HETATM   20  H   UNL     1      98.892   8.201 -27.880  1.00  0.00     0.210 HD
ENDBRANCH   5  19
BRANCH  18  21
HETATM   21  O   UNL     1     107.028  12.912 -23.219  1.00  0.00    -0.361 OA
HETATM   22  H   UNL     1     107.606  12.817 -23.995  1.00  0.00     0.217 HD
ENDBRANCH  18  21
TORSDOF 2
ENDMDL
MODEL 20
REMARK VINA RESULT:      -6.0     21.486     23.685
REMARK  2 active torsions:
REMARK  status: ('A' for Active; 'I' for Inactive)
REMARK    1  A    between atoms: O_19  and  C_5 
REMARK    2  A    between atoms: O_21  and  C_18 
ROOT
HETATM    1  C   UNL     1      97.399  20.486  -7.138  1.00  0.00    -0.014 C 
HETATM    2  C   UNL     1      96.562  19.195  -7.033  1.00  0.00     0.001 C 
HETATM    3  C   UNL     1      96.031  18.729  -8.392  1.00  0.00    -0.001 C 
HETATM    4  C   UNL     1      97.237  18.471  -9.348  1.00  0.00     0.023 C 
HETATM    5  C   UNL     1      97.715  20.708  -5.647  1.00  0.00     0.126 C 
HETATM    6  C   UNL     1      98.624  20.188  -8.006  1.00  0.00     0.013 C 
HETATM    7  C   UNL     1      95.575  19.514  -5.912  1.00  0.00     0.008 C 
HETATM    8  C   UNL     1      98.215  19.673  -9.392  1.00  0.00     0.010 C 
HETATM    9  C   UNL     1      96.391  20.381  -4.932  1.00  0.00     0.033 C 
HETATM   10  C   UNL     1      95.214  17.437  -8.289  1.00  0.00     0.010 C 
HETATM   11  C   UNL     1      96.637  21.705  -7.719  1.00  0.00     0.018 C 
HETATM   12  C   UNL     1      96.746  18.008 -10.715  1.00  0.00    -0.047 A 
HETATM   13  C   UNL     1      94.625  17.050  -9.647  1.00  0.00     0.039 C 
HETATM   14  C   UNL     1      95.523  17.316 -10.834  1.00  0.00    -0.049 A 
HETATM   15  C   UNL     1      97.519  18.203 -11.877  1.00  0.00     0.011 A 
HETATM   16  C   UNL     1      95.081  16.895 -12.100  1.00  0.00     0.044 A 
HETATM   17  C   UNL     1      97.074  17.778 -13.128  1.00  0.00     0.037 A 
HETATM   18  C   UNL     1      95.852  17.132 -13.232  1.00  0.00     0.066 A 
ENDROOT
BRANCH   5  19
HETATM   19  O   UNL     1      98.148  22.022  -5.348  1.00  0.00    -0.395 OA
HETATM   20  H   UNL     1      98.571  21.999  -4.474  1.00  0.00     0.210 HD
ENDBRANCH   5  19
BRANCH  18  21
HETATM   21  O   UNL     1      95.372  16.712 -14.435  1.00  0.00    -0.361 OA
HETATM   22  H   UNL     1      95.873  15.926 -14.708  1.00  0.00     0.217 HD
ENDBRANCH  18  21
TORSDOF 2
ENDMDL
